$ -------------------------------------------------------------------- $
$ WAVEWATCH III shel input file                                        $
$ -------------------------------------------------------------------- $
$ Define input to be used with F/T/C flag for use or nor or coupling and
$ T/F flag for definition as a homogeneous field.
$
$ Include ice and mud parameters only if IC1/2/3/4 used :
   F F     Water levels
   @[INPUT_CURFLD]
   C F     Winds
   @[INPUT_ICEFLD]
   F F     Atmospheric momentum
   F F     Air density
   F       Assimilation data : Mean parameters
   F       Assimilation data : 1-D spectra
   F       Assimilation data : 2-D spectra
$
$ Time frame of calculations ----------------------------------------- $
$ - Starting time in yyyymmdd hhmmss format.
$ - Ending time in yyyymmdd hhmmss format.
$
   @[RUN_BEG]
   @[RUN_END]
$
$ IOSTYP
   1
$
   @[RUN_BEG]   @[WW3_DTFLD]  @[RUN_END] @[GOFILETYPE]
   N
   @[WW3_OUTPARS]
$
   @[RUN_BEG]   @[WW3_DTPNT]  @[RUN_END] @[POFILETYPE]
$
$ Global output point data file for multi-grid wave model
$
$ Key to data in file:
$
$   LON      Longitude, east positive
$   LAT      Latitude
$   NAME     Output point name C*10, no blanks in name allowed
$   AH       Anemometer height, dummy value for none-data points
$   TYPE     Buoy type indicator, used for plotting and postprocessing
$             DAT      Data point
$             XDT      Former data point
$             BPT      Boundary data for non-NCEP models.
$             IBP      Boundary data for NCEP models.
$             VBY      'NWS Virtual buoy'
$             NBY      'Non-NWS Virtual buoy'
$   SOURCE   Source of data point
$             ENCAN    Environment Canada
$             GOMOOS   Gulf of Maine OOS
$             IDT      Irish Department of Transportation
$             METFR    Meteo France
$             NCEP     Boundary and other data points
$             NDBC     National Data Buoy Center
$             PRIV     Private and incidental data sources
$             SCRIPPS  Scripps
$             UKMO     UK Met Office
$             PDES     Puertos del Estados
$             SHOM     Service Hydrographique et Oceanographique de la Marine
$             OCNOR    Fugro Oceanor
$             WHOI     Woods Hole Oceanographic Institute
$             SKOREA   South Korea
$             MVEW     Ministerie van Verkeer en Waterstaat
$             CORMP    Coastal Ocean Research and Monitoring Program
$             DIMAR    Direccion General Maritima (Columbia)
$             BP       British Petroleum
$   SCALE    Scale indicator for plotting of locations on map
$            Point will only be plotted if SCALE =< DX in our
$            GrADS scripts, DX is width of plot in logitude
$
$ Notes:
$
$  - The '$' at the first position identifies comments for WAVEWATCH III
$    input.
$  - The first three data columns are used by the forecats code, the other
$    are used by postprocessing scripts.
$
$   LON     LAT     NAME          AH   TYPE  SOURCE  SCALE
$ ---------------------------------------------------------
$
$ AWIPS Data section (most actual observational sites)
$ AWIPS code indicated prior and after each AWIPS section
$
$AGGA48
$ Gulf of Alaska (AG) Spectral data (4) near S/SW Alaska Anchorage (8) 
  -148.02   56.31  '46001     '   5.0   DAT  NDBC     360
  -154.98   52.70  '46066     '   5.0   DAT  NDBC     360
  -146.83   60.22  '46061     '   5.0   DAT  NDBC      90
  -160.81   53.93  '46075     '   5.0   DAT  NDBC     360
  -148.00   59.50  '46076     '   5.0   DAT  NDBC     360
  -152.45   56.05  '46078     '   5.0   DAT  NDBC     360
  -152.09   59.76  '46106     '   999   DAT  NDBC     75
  -150.00   58.00  '46080     '   5.0   DAT  NDBC     360
  -151.829  59.597 '46108     '   5.0   DAT  NDBC      45
  -160.000  57.700 '46021     ' 999.0   DAT  NDBC      45
  -146.805  60.584 '46060     '   5.0   DAT  NDBC      45
  -154.175  57.910 '46077     '   5.0   DAT  NDBC      45
  -152.230  59.050 '46079     '   4.9   DAT  NDBC      45
  -152.233  59.049 '46105     '   2.0   DAT  NDBC      45
  -147.992  59.925 '46107     '   2.0   DAT  NDBC      45
  -165.475  64.473 '46265     '   2.0   DAT  NDBC      45
$AGGA48
$
$AGGA47
$ Gulf of Alaska (AG) Spectral data (4) near Alaska Panhandle and NBC (7)
  -136.10   50.93  '46004     '   5.0   DAT  ENCAN    360
  -138.85   53.91  '46184     '   5.0   DAT  ENCAN    360
  -143.42   59.69  '46082     '   5.0   DAT  NDBC     360
  -138.00   58.25  '46083     '   5.0   DAT  NDBC     360
  -136.16   56.59  '46084     '   5.0   DAT  NDBC     360
  -142.56   56.85  '46085     '   5.0   DAT  NDBC     360
  -134.28   54.16  '46205     '   5.0   DAT  ENCAN     45
  -132.45   54.38  '46145     '   5.0   DAT  ENCAN     45
  -131.22   51.83  '46147     '   5.0   DAT  ENCAN     90
  -131.10   53.62  '46183     '   5.0   DAT  ENCAN     45
  -129.81   52.42  '46185     '   5.0   DAT  ENCAN     45
  -128.75   51.37  '46204     '   5.0   DAT  ENCAN     45
  -129.92   50.87  '46207     '   5.0   DAT  ENCAN     45
  -132.68   52.52  '46208     '   5.0   DAT  ENCAN     45
  -129.795  52.437 '46138     ' 999.0   DAT  NDBC      45
$AGGA47
$
$AGPZ46
$ Eastern Pacific (PZ) spectral data (4) near Pacific states and SBC (6)
  -130.27   42.60  '46002     '   5.0   DAT  NDBC     360
  -137.48   40.80  '46006     '   5.0   DAT  NDBC     360
  -130.00   37.98  '46059     '   5.0   DAT  NDBC     360
  -120.87   34.88  '46011     '   5.0   DAT  NDBC      15
  -122.88   37.36  '46012     '   5.0   DAT  NDBC      45
  -123.32   38.23  '46013     '   5.0   DAT  NDBC      25
  -123.97   39.22  '46014     '   5.0   DAT  NDBC      45
  -124.54   40.78  '46022     '   5.0   DAT  NDBC      25
  -120.97   34.71  '46023     '  10.0   DAT  NDBC      45
  -122.82   37.75  '46026     '   5.0   DAT  NDBC      25
  -124.38   41.85  '46027     '   5.0   DAT  NDBC      45
  -124.85   42.75  '46015     '   5.0   DAT  NDBC      45
  -119.08   33.75  '46025     '   5.0   DAT  NDBC      45
  -121.89   35.74  '46028     '   5.0   DAT  NDBC      45
  -124.53   40.42  '46030     '   5.0   DAT  NDBC      15
  -122.42   36.75  '46042     '   5.0   DAT  NDBC      45
  -119.53   32.43  '46047     '   5.0   DAT  NDBC      45
  -124.53   44.62  '46050     '   5.0   DAT  NDBC      45
  -119.85   34.24  '46053     '   5.0   DAT  NDBC      45
  -120.45   34.27  '46054     '  10.0   DAT  NDBC      25
  -121.01   35.10  '46062     '   5.0   DAT  NDBC      45
  -120.70   34.27  '46063     '   5.0   DAT  NDBC      45
  -120.20   33.65  '46069     '   5.0   DAT  NDBC      45
  -118.00   32.50  '46086     '   5.0   DAT  NDBC      45
  -125.77   45.88  '46089     '   5.0   DAT  NDBC      45
  -124.74   40.29  '46213     '  999.   DAT  SCRIPPS   25
  -123.465  37.9403 '46214    '  999.   DAT  SCRIPPS   45
  -119.80   34.33  '46216     '  999.   DAT  SCRIPPS   15
  -119.43   34.17  '46217     '  999.   DAT  SCRIPPS   15
  -120.78   34.45  '46218     '  999.   DAT  SCRIPPS   25
  -119.88   33.22  '46219     '  999.   DAT  SCRIPPS   45
  -118.641 33.8599 '46221     '  999.   DAT  SCRIPPS   15
  -118.32   33.62  '46222     '  999.   DAT  SCRIPPS   15
  -117.77   33.46  '46223     '  999.   DAT  SCRIPPS   15
  -117.47   33.18  '46224     '  999.   DAT  SCRIPPS   15
  -117.39   32.93  '46225     '  999.   DAT  SCRIPPS   15
  -117.44   32.63  '46227     '  999.   DAT  SCRIPPS   15
  -124.55   43.77  '46229     '  999.   DAT  SCRIPPS   25
  -117.37   32.75  '46231     '  999.   DAT  SCRIPPS   15
  -117.425  32.517 '46232     '  999.   DAT  SCRIPPS   15
  -117.75   32.64  'SGX01     '  999.   VBY  NCEP      25
  -118.00   30.00  'TPC50     '  999.   VBY  NCEP     360
  -135.00   20.00  'TPC51     '  999.   VBY  NCEP     360
  -117.00   20.00  'TPC52     '  999.   VBY  NCEP     360
  -120.00    6.00  'TPC53     '  999.   VBY  NCEP     360
   -95.00   15.00  'TPC54     '  999.   VBY  NCEP     360
   -88.00    9.00  'TPC55     '  999.   VBY  NCEP     360
   -80.00    6.00  'TPC56     '  999.   VBY  NCEP     360
  -130.50   48.10  'OPCP01    '  999.   VBY  NCEP      45
  -126.60   48.10  'OPCP02    '  999.   VBY  NCEP      45
  -129.70   45.30  'OPCP03    '  999.   VBY  NCEP      45
  -125.60   45.30  'OPCP04    '  999.   VBY  NCEP      45
  -129.90   41.75  'OPCP05    '  999.   VBY  NCEP      45
  -125.80   41.90  'OPCP06    '  999.   VBY  NCEP      45
  -129.00   38.50  'OPCP07    '  999.   VBY  NCEP      45
  -125.50   39.20  'OPCP08    '  999.   VBY  NCEP      45
  -125.40   36.40  'OPCP09    '  999.   VBY  NCEP      45
  -125.00   33.30  'OPCP10    '  999.   VBY  NCEP      45
  -122.30   34.60  'OPCP11    '  999.   VBY  NCEP      45
  -121.50   30.90  'OPCP12    '  999.   VBY  NCEP      45
  -117.00   29.60  'OPCP13    '  999.   VBY  NCEP      45
  -120.86   35.20  '46215     '  999.   DAT  SCRIPPS   45
  -121.95   36.76  '46236     '  999.   DAT  SCRIPPS   15
  -122.634  37.787 '46237     '  999.   DAT  SCRIPPS   15
  -119.47   33.40  '46238     '  999.   DAT  SCRIPPS   15
  -122.10   36.34  '46239     '  999.   DAT  SCRIPPS   15
  -121.91   36.62  '46240     '  999.   DAT  SCRIPPS   15
  -124.13   46.22  '46243     '  999.   DAT  SCRIPPS   45
  -124.36   40.89  '46244     '  999.   DAT  SCRIPPS   45
  -145.20   50.033 '46246     '  999.   DAT  SCRIPPS   45
  -124.644  46.133 '46248     '  999.   DAT  SCRIPPS   45
  -119.200  33.000 '46024     '  10.0   DAT  NDBC      45
  -121.899  36.835 '46091     '   4.0   DAT  NDBC      45
  -122.030  36.750 '46092     '   4.0   DAT  NDBC      45
  -122.410  36.690 '46093     '   4.0   DAT  NDBC      45
  -124.300  44.642 '46094     '   3.0   DAT  NDBC      45
  -124.304  44.639 '46097     '   4.5   DAT  NDBC      45
  -124.956  44.381 '46098     '   4.5   DAT  NDBC      45
  -122.33   36.685 '46114     ' 999.0   DAT  NDBC      45
  -124.313  40.753 '46212     ' 999.0   DAT  NDBC      45
  -117.353  32.848 '46226     ' 999.0   DAT  NDBC      45
  -117.320  32.936 '46233     '   3.0   DAT  NDBC      45
  -117.167  32.572 '46235     ' 999.0   DAT  NDBC      45
  -117.439  33.220 '46242     ' 999.0   DAT  NDBC      45
  -122.833  37.753 '46247     ' 999.0   DAT  NDBC      45
  -119.708  33.821 '46249     ' 999.0   DAT  NDBC      45
  -119.090  34.034 '46250     ' 999.0   DAT  NDBC      45
  -119.564  33.769 '46251     ' 999.0   DAT  NDBC      45
  -119.257  33.953 '46252     ' 999.0   DAT  NDBC      45
  -118.181  33.576 '46253     ' 999.0   DAT  NDBC      45
  -117.267  32.868 '46254     ' 999.0   DAT  NDBC      45
  -119.651  33.400 '46255     ' 999.0   DAT  NDBC      45
  -118.201  33.700 '46256     ' 999.0   DAT  NDBC      45
  -120.766  34.439 '46257     ' 999.0   DAT  NDBC      45
  -117.500  32.750 '46258     ' 999.0   DAT  NDBC      45
  -121.497  34.767 '46259     ' 999.0   DAT  NDBC      45
  -119.004  33.704 '46262     ' 999.0   DAT  NDBC      45
$AGPZ46
$
$AGPZ47
$ Eastern Pacific (PZ) spectral data (4) near Alaska Panhandle and NBC (7)
  -131.02   46.05  '46005     '   5.0   DAT  NDBC     360
  -133.94   48.35  '46036     '   5.0   DAT  ENCAN    360
  -127.93   49.74  '46132     '   5.0   DAT  ENCAN     90
  -126.00   48.84  '46206     '   5.0   DAT  ENCAN     45
  -124.51   46.12  '46029     '   5.0   DAT  NDBC      45
  -124.75   47.34  '46041     '   5.0   DAT  NDBC      45
  -124.73   48.49  '46087     '   5.0   DAT  NDBC      45
  -124.24   46.86  '46211     '  999.   DAT  SCRIPPS   25
  -123.165  48.334 '46088     '   5.0   DAT  NDBC      45
  -124.127  46.173 '46096     '   3.0   DAT  NDBC      45
  -124.566  46.986 '46099     '   4.5   DAT  NDBC      45
  -124.972  46.851 '46100     '   4.5   DAT  NDBC      45
  -124.950  47.967 '46119     '   3.7   DAT  NDBC      45
  -124.063  46.215 '46127     '   3.0   DAT  NDBC      45
  -126.010  48.844 '46139     ' 999.0   DAT  NDBC      45
  -151.700  57.480 '46264     ' 999.0   DAT  NDBC      45
$AGPZ47
$
$AGPN48
$ North Pacific and Behring Sea (PN) spectra (4) near S/SW Alaska Anchorage (8)
  -177.58   57.05  '46035     '  10.0   DAT  NDBC     360
   175.28   55.00  '46070     '   5.0   DAT  NDBC     360
  -172.03   54.94  '46073     '  10.0   DAT  NDBC     360
   179.05   51.16  '46071     '   5.0   DAT  NDBC     360
  -171.73   52.25  '46072     '   5.0   DAT  NDBC     360
  -168.000  55.883 '46020     ' 999.0   DAT  NDBC     360
$AGPN48
$
$AGHW40
$ Hawaiian waters (HW) spectra (4) in Pacific Ocean and Pacific Isles (0)
  -162.21   23.43  '51001     '   5.0   DAT  NDBC     360
  -157.78   17.19  '51002     '   5.0   DAT  NDBC     360
  -160.82   19.22  '51003     '   5.0   DAT  NDBC     360
  -152.48   17.52  '51004     '   5.0   DAT  NDBC     360
  -158.00   24.00  'HNL01     '  999.   VBY  NCEP     360
  -153.00   22.50  'HNL02     '  999.   VBY  NCEP     360
  -157.75   22.00  'HNL10     '  999.   VBY  NCEP      45
  -158.25   21.00  'HNL11     '  999.   VBY  NCEP      45
  -156.50   19.75  'HNL12     '  999.   VBY  NCEP      45
  -158.12   21.67  '51201     '  999.   DAT  SCRIPPS   11
  -157.68   21.42  '51202     '  999.   DAT  SCRIPPS   11
  -177.40   28.20  'MIDWAY    '  999.   VBY  NCEP     360
  -169.50   16.70  'JOHNSTON  '  999.   VBY  NCEP     360
  -166.30   23.90  'FF_SHOALS '  999.   VBY  NCEP     360
  -154.06   23.55  '51000     '   5.0   DAT  NDBC      11
  -153.90   23.56  '51100     '   5.0   DAT  NDBC      11
  -162.06   24.32  '51101     '   5.0   DAT  NDBC      11
  -157.00   20.79  '51203     '  999.   DAT  SCRIPPS   11
  -158.12   21.28  '51204     '  999.   DAT  SCRIPPS   11
  -156.42   21.02  '51205     '  999.   DAT  SCRIPPS   11
  -154.97   19.78  '51206     '  999.   DAT  SCRIPPS   11
  -157.75   21.48  '51207     '  999.   DAT  SCRIPPS   11
  -153.87    0.02  '51028     '   5.0   DAT  NDBC      11
  -158.303  21.096 '51200     ' 999.0   DAT  NDBC      11
  -159.574  22.285 '51208     '  999.   DAT  SCRIPPS   11
  -170.5   -14.273 '51209     ' 999.0   DAT  NDBC     360
  -157.756  21.477 '51210     ' 999.0   DAT  NDBC      11
   134.670   7.692 '52212     ' 999.0   DAT  NDBC     360
  -157.959  21.297 '51211     ' 999.0   DAT  NDBC     360
  -158.150  21.323 '51212     ' 999.0   DAT  NDBC     360
  -157.003  20.750 '51213     ' 999.0   DAT  NDBC     360
$AGHW40
$
$AGPW40
$ Western Pacific (PW) spectra (4) in Pacific Ocean and Pacific Isles (0) 
   147.50   16.00  'SAIPAN    '  999.   VBY  NCEP     360
   143.75   12.00  'GUAM      '  999.   VBY  NCEP     360
   166.50   19.50  'WAKE      '  999.   VBY  NCEP     360
   136.25    9.00  'PALAU     '  999.   VBY  NCEP     360
   138.00    9.60  'YAP       '  999.   VBY  NCEP     360
   152.50    8.00  'CHUUK     '  999.   VBY  NCEP     360
   157.50    7.00  'POHNPEI   '  999.   VBY  NCEP     360
   163.00    5.10  'KOSRAE    '  999.   VBY  NCEP     360
   171.25    8.00  'MAJURO    '  999.   VBY  NCEP     360
   163.75   13.00  'ENEWETAK  '  999.   VBY  NCEP     360
   174.00    1.00  'TARAWA    '  999.   VBY  NCEP     360
   144.79   13.35  '52200     '  999.   DAT  SCRIPPS  360
   126.02   37.23  '22101     '   999.  DAT  SKOREA    100
   125.77   34.80  '22102     '   999.  DAT  SKOREA    100
   127.50   34.00  '22103     '   999.  DAT  SKOREA    100
   128.90   34.77  '22104     '   999.  DAT  SKOREA    100
   130.00   37.53  '22105     '   999.  DAT  SKOREA    100
   171.391  7.038  '52201     '  999.   DAT  SCRIPPS  360
   144.80   13.68  '52202     '  999.   DAT  SCRIPPS  360
   145.66   15.27  '52211     '  999.   DAT  SCRIPPS  360
   145.00   14.70  'SAIPAN_W  '  999.   VBY  NCEP     360
   145.60   14.30  'SAIPAN_E  '  999.   VBY  NCEP     360
   133.90    7.50  'PALAU_W   '  999.   VBY  NCEP     360
   134.90    7.70  'PALAU_E   '  999.   VBY  NCEP     360
   138.40    9.60  'YAP_E     '  999.   VBY  NCEP     360
   151.20    7.40  'CHUUK_W   '  999.   VBY  NCEP     360
   152.10    7.60  'CHUUK_E   '  999.   VBY  NCEP     360
   158.40    7.10  'POHNPEI_E '  999.   VBY  NCEP     360
   162.80    5.90  'KOSRAE_W  '  999.   VBY  NCEP     360
   167.80    9.50  'KWAJALEIN '  999.   VBY  NCEP     360
   167.50    8.67  'KWAJ_W1   '  999.   VBY  NCEP     360
   167.00    8.67  'KWAJ_W2   '  999.   VBY  NCEP     360
   168.17    8.67  'KWAJ_E    '  999.   VBY  NCEP     360
   166.33    9.17  'WOTHO     '  999.   VBY  NCEP     360
   168.00    9.17  'ROI_NAMUR '  999.   VBY  NCEP     360
   171.50    9.17  'WOTJE_E   '  999.   VBY  NCEP     360
   171.40    7.60  'MAJURO_02 '  999.   VBY  NCEP     360
   171.50    6.60  'MAJURO_03 '  999.   VBY  NCEP     360
   133.62   33.19  '21178     '  999.   DAT  WMO      360
   131.11   37.46  '21229     '  999.   DAT  WMO      360
   125.75   36.25  '22108     '  999.   DAT  WMO      360
   126.14   33.79  '22184     '  999.   DAT  WMO      360
   125.43   37.09  '22185     '  999.   DAT  WMO      360
   125.81   35.66  '22186     '  999.   DAT  WMO      360
   127.02   33.13  '22187     '  999.   DAT  WMO      360
   128.23   34.39  '22188     '  999.   DAT  WMO      360
   129.84   35.35  '22189     '  999.   DAT  WMO      360
   129.87   36.91  '22190     '  999.   DAT  WMO      360
$AGPW40
$
$AGPS40
$ South Pacific (PS) in Pacific Ocean and Pacific Isles (0)
   146.25  -12.00  'NEWGUINE_S'  999.   VBY  NCEP     360
  -168.75  -15.00  'PAGO_PAGO '  999.   VBY  NCEP     360
   176.25  -18.00  'NADI      '  999.   VBY  NCEP     360
   179.20   -8.50  'FUNAFUTI  '  999.   VBY  NCEP     360
  -175.00  -22.00  'TONGATAPU '  999.   VBY  NCEP     360
  -159.80  -21.20  'RAROTONGA '  999.   VBY  NCEP     360
   167.50  -24.00  'NOUMEA    '  999.   VBY  NCEP     360
   167.50  -18.00  'PORT_VILA '  999.   VBY  NCEP     360
  -149.60  -19.00  'PAPEETE   '  999.   VBY  NCEP     360
  -169.90  -19.10  'NIUE      '  999.   VBY  NCEP     360
  -171.90   -9.20  'NUKUNONO  '  999.   VBY  NCEP     360
   167.00   -0.50  'NAURU     '  999.   VBY  NCEP     360
   160.00  -12.00  'SOLOMON_SW'  999.   VBY  NCEP     360
   165.00  -12.00  'SOLOMON_SE'  999.   VBY  NCEP     360
   160.00   -5.00  'SOLOMON_N '  999.   VBY  NCEP     360
   -85.00  -15.00  'TPC01     '  999.   VBY  NCEP     360
  -110.00  -15.00  'TPC02     '  999.   VBY  NCEP     360
  -135.00  -15.00  'TPC03     '  999.   VBY  NCEP     360
   150.18  -37.29  '55020     '  999.   DAT  UNKNOWN   50
   151.07  -23.31  '55033     '  999.   DAT  UNKNOWN   50
   153.63  -27.49  '55035     '  999.   DAT  UNKNOWN   50
   148.19  -38.60  '55039     '  999.   DAT  UNKNOWN   50
   118.00   -1.00  'SULAWESI  '  999.   VBY  NCEP     360
   120.00   -7.50  'P_BONARAT '  999.   VBY  NCEP     100
   125.00   -5.00  'P_RUNDUMA '  999.   VBY  NCEP     100
   133.00   -8.00  'P_JAMDENA '  999.   VBY  NCEP     360
   122.00  -11.00  'P_SAWA    '  999.   VBY  NCEP     360
$AGPS40
$
$AGGX42
$ Gulf of Mexico (GX) spectra (4) south from NC and Puerto Rico (2)
   -89.67   25.90  '42001     '  10.0   DAT  NDBC     360
   -94.42   25.17  '42002     '  10.0   DAT  NDBC     360
   -85.94   26.07  '42003     '  10.0   DAT  NDBC     360
   -88.77   30.09  '42007     '   5.0   DAT  NDBC      90
   -95.36   27.91  '42019     '   5.0   DAT  NDBC      90
   -96.70   26.94  '42020     '   5.0   DAT  NDBC      90
   -94.40   29.22  '42035     '   5.0   DAT  NDBC      90
   -84.52   28.50  '42036     '   5.0   DAT  NDBC      90
   -86.02   28.79  '42039     '   5.0   DAT  NDBC      90
   -88.21   29.18  '42040     '   5.0   DAT  NDBC      90
   -90.46   27.50  '42041     '   5.0   DAT  NDBC      90
   -92.55   27.42  '42038     '   5.0   DAT  NDBC      90
   -94.05   22.01  '42055     '  10.0   DAT  NDBC     360
   -84.275  27.348 '42099     ' 999.    DAT  SCRIPPS  100 
   -86.00   23.00  'TPC26     '  999.   VBY  NCEP     360
   -87.55   30.06  '42012     '   5.0   DAT  NDBC      90
   -88.49   28.19  '42887     '  48.2   DAT  BP        90
   -87.73   26.00  '42054     '  10.0   XDT  NDBC      90
   -82.924  27.173 '42013     '   3.1   DAT  NDBC      90
   -82.220  25.254 '42014     '   2.8   DAT  NDBC      90
   -83.306  28.311 '42021     '   2.8   DAT  NDBC      90
   -83.741  27.504 '42022     '   3.1   DAT  NDBC      90
   -83.086  26.010 '42023     '   3.1   DAT  NDBC      90
   -94.899  28.982 '42043     '   3.4   DAT  NDBC      90
   -97.051  26.191 '42044     '   3.4   DAT  NDBC      90
   -96.500  26.217 '42045     '   3.4   DAT  NDBC      90
   -94.037  27.890 '42046     '   3.4   DAT  NDBC      90
   -93.597  27.896 '42047     '   3.4   DAT  NDBC      90
   -88.647  30.042 '42067     '   5.0   DAT  NDBC      90
   -83.650  25.700 '42097     ' 999.0   DAT  NDBC      90
   -82.931  27.589 '42098     ' 999.0   DAT  NDBC      90
   -90.471  26.672 '42360     '   3.0   DAT  NDBC      90
   -92.490  27.550 '42361     ' 122.0   DAT  NDBC      90
   -90.648  27.795 '42362     ' 122.0   DAT  NDBC      90
   -89.220  28.160 '42363     ' 122.0   DAT  NDBC      90
   -88.090  29.060 '42364     ' 122.0   DAT  NDBC      90
   -89.120  28.200 '42365     ' 122.0   DAT  NDBC      90
   -90.283  27.207 '42369     '  60.4   DAT  NDBC      90
   -90.536  27.322 '42370     '  78.7   DAT  NDBC      90
   -88.056  28.866 '42374     '  61.0   DAT  NDBC      90
   -88.289  28.521 '42375     '  61.0   DAT  NDBC      90
   -87.944  29.108 '42376     '  61.0   DAT  NDBC      90
   -94.898  26.129 '42390     '  61.0   DAT  NDBC      90
   -90.027  27.196 '42392     ' 100.0   DAT  NDBC      90
   -89.240  28.157 '42394     ' 100.0   DAT  NDBC      90
   -90.792  26.404 '42395     '   3.0   DAT  NDBC      90
$AGGX42
$
$AGCA42
$ Caribbean Sea (CA) spectra (4) south from NC and Puerto Rico (2)
   -85.06   19.87  '42056     '  10.0   DAT  NDBC     360
   -81.50   16.83  '42057     '  10.0   DAT  NDBC     360
   -75.06   15.09  '42058     '  10.0   DAT  NDBC     360
   -81.95   24.39  '42080     ' 999.    DAT  NDBC      45
   -81.75   24.00  'EYW01     '  999.   VBY  NCEP      90
   -82.25   25.00  'EYW02     '  999.   VBY  NCEP      90
   -66.50   19.00  'PUERTO_R_N'  999.   VBY  NCEP      90
   -66.50   17.50  'PUERTO_R_S'  999.   VBY  NCEP      90
   -67.50   15.01  '42059     '   5.0   DAT  NDBC     360
   -85.38  -19.62  '32012'       999.   DAT  WHOI     360
   -63.00   15.00  'TPC21     '  999.   VBY  NCEP     360
   -77.00   12.00  'TPC22     '  999.   VBY  NCEP     360
   -80.00   15.00  'TPC23     '  999.   VBY  NCEP     360
   -76.00   22.00  'TPC24     '  999.   VBY  NCEP     360
   -80.00   24.00  'TPC25     '  999.   VBY  NCEP     360
   -63.50   16.50  '42060     '   5.0   DAT  NDBC     360
   -67.50   19.00  'CARCOOS01 '  999.   VBY  NCEP      90
   -65.50   19.00  'CARCOOS02 '  999.   VBY  NCEP      90
   -64.00   19.00  'CARCOOS03 '  999.   VBY  NCEP      90
   -64.40   17.30  'CARCOOS04 '  999.   VBY  NCEP      90
   -67.50   17.50  'CARCOOS05 '  999.   VBY  NCEP      90
   -74.681  11.161 '41194     ' 999.0   DAT  NDBC      90
   -66.524  17.860 '42085     '   4.0   DAT  NDBC      90
   -80.061  19.699 '42089     '   3.4   DAT  NDBC      90
   -64.763  18.251 '41052     '   4.0   DAT  NDBC      90
   -65.004  18.257 '41051     '   4.0   DAT  NDBC      90
   -65.457  18.260 '41056     '   4.0   DAT  NDBC      90
   -67.280  18.379 '41115     ' 999.0   DAT  NDBC      90
   -81.080  30.000 '41117     ' 999.0   DAT  NDBC      90
   -81.244  24.535 '42079     ' 999.0   DAT  NDBC      90
   -75.042  36.000 '42086     ' 999.0   DAT  NDBC      90
   -81.967  24.407 '42095     ' 999.0   DAT  NDBC      90
$AGCA42
$
$AGNT42
$ Western Atlantic (NT) spectra (4) south from NC and Puerto Rico (2)
   -72.66   34.68  '41001     '   5.0   DAT  NDBC     360
   -75.36   32.32  '41002     '   5.0   DAT  NDBC     360
   -79.09   32.50  '41004     '   5.0   DAT  NDBC     360
   -80.87   31.40  '41008     '   5.0   DAT  NDBC     360
   -80.17   28.50  '41009     '   5.0   DAT  NDBC      80
   -78.47   28.95  '41010     '   5.0   DAT  NDBC      80
   -80.60   30.00  '41012     '   5.0   DAT  NDBC      80
   -77.74   33.44  '41013     '   5.0   DAT  NDBC      80
   -75.40   35.01  '41025     '   5.0   DAT  NDBC      80
   -77.28   34.48  '41035     '   5.0   DAT  NDBC      80
   -76.95   34.21  '41036     '   5.0   DAT  NDBC      80
   -65.01   20.99  '41043     '   5.0   DAT  NDBC      90
   -70.99   24.00  '41046     '   5.0   DAT  NDBC      90
   -71.49   27.47  '41047     '  10.0   DAT  NDBC      90
   -69.65   31.98  '41048     '  10.0   DAT  NDBC      90
   -81.292  30.709 '41112     '  999.   DAT  SCRIPPS   30
   -80.53   28.40  '41113     '  999.   DAT  SCRIPPS   30
   -80.22   27.55  '41114     '  999.   DAT  SCRIPPS   30
   -74.84   36.61  '44014     '   5.0   DAT  NDBC      90
   -77.00   30.75  'CHS01     '  999.   VBY  NCEP      80
   -77.00   34.00  'ILM01     '  999.   VBY  NCEP      45
   -78.50   33.25  'ILM02     '  999.   VBY  NCEP      45
   -80.25   29.50  'JAX02     '  999.   VBY  NCEP      90
   -79.50   27.25  'MLB01     '  999.   VBY  NCEP      90
   -79.50   26.25  'MIA01     '  999.   VBY  NCEP      80
   -79.75   25.00  'MIA02     '  999.   VBY  NCEP      90
   -74.60   36.30  'OPCA05    '  999.   VBY  NCEP      45
   -73.80   35.60  'OPCA06    '  999.   VBY  NCEP      45
   -70.80   34.90  'OPCA07    '  999.   VBY  NCEP      45
   -76.00   33.80  'OPCA08    '  999.   VBY  NCEP      45
   -72.30   32.80  'OPCA09    '  999.   VBY  NCEP      45
   -77.36   33.99  '41037     '   3.0   DAT  CORMP     80
   -77.72   34.14  '41038     '   3.0   DAT  CORMP     80
   -63.00   27.50  '41049     '   5.0   DAT  NDBC      90
   -58.69   21.65  '41044     '   5.0   DAT  NDBC      90
   -77.30   34.48  '41109     '   3.0   DAT  CORMP     80
   -77.71   34.14  '41110     '   3.0   DAT  CORMP     80
   -67.28   18.38  '41111     '   3.0   DAT  CORMP     80
   -66.099  18.474 '41053     '   5.0   DAT  NDBC      80
   -65.157  18.476 '41058     '   5.0   DAT  NDBC      80
   -78.484  33.837 '41024     '   3.0   DAT  NDBC      80
   -78.137  33.302 '41027     '   3.0   DAT  NDBC      80
   -79.624  32.803 '41029     '   3.0   DAT  NDBC      80
   -79.340  32.520 '41030     '   3.0   DAT  NDBC      80
   -80.410  32.279 '41033     '   3.0   DAT  NDBC      80
   -38.000  24.581 '41061     '   2.7   DAT  NDBC      80
   -75.095  35.778 '41062     '   3.5   DAT  NDBC      80
   -75.941  34.782 '41063     '   3.5   DAT  NDBC      80
   -76.949  34.207 '41064     '   3.0   DAT  NDBC      80
   -78.015  33.721 '41108     ' 999.0   DAT  NDBC      80
   -76.948  34.210 '41159     ' 999.0   DAT  NDBC      80
   -75.714  36.200 '44056     ' 999.0   DAT  NDBC      80
$AGNT42
$
$AGNT41
$  Western Atlantic (NT) spectra (4) NE states north of VA (1)  
   -53.62   44.26  '44138     '   5.0   DAT  ENCAN    360
   -66.58   41.11  '44011     '   5.0   DAT  NDBC     360
   -58.00   43.00  '44141     '   5.0   DAT  ENCAN    360
   -64.02   42.50  '44142     '   5.0   DAT  ENCAN    360
   -48.01   46.77  'WRB07     '  10.0   DAT  PRIV     360
   -62.00   42.26  '44137     '   5.0   DAT  ENCAN    360
   -57.08   44.26  '44139     '   5.0   DAT  ENCAN    360
   -51.74   43.75  '44140     '   5.0   DAT  ENCAN    360
   -64.01   42.50  '44150     '   5.0   DAT  ENCAN    360
   -70.43   38.48  '44004     '   5.0   DAT  NDBC      90
   -69.16   43.19  '44005     '   5.0   DAT  NDBC      90
   -69.43   40.50  '44008     '   5.0   DAT  NDBC      90
   -74.70   38.46  '44009     '   5.0   DAT  NDBC      90
   -72.10   40.70  '44017     '   5.0   DAT  NDBC      80
   -69.29   41.26  '44018     '   5.0   DAT  NDBC      80
   -73.17   40.25  '44025     '   5.0   DAT  NDBC      80
   -70.25   42.50  'BOX01     '  999.   VBY  NCEP      45
   -67.50   44.00  'CAR01     '  999.   VBY  NCEP      45
   -71.01   41.38  '44070     '  999.   DAT  NDBC      60
   -65.93   42.31  '44024     '   4.0   DAT  GOMOOS    80
   -67.31   44.27  '44027     '   5.0   DAT  NDBC      80
   -67.88   43.49  '44037     '   4.0   DAT  GOMOOS    80
   -66.55   43.62  '44038     '   4.0   DAT  GOMOOS    80
   -53.39   46.44  '44251     '   5.0   DAT  ENCAN     80
   -57.35   47.28  '44255     '   5.0   DAT  ENCAN     80
   -69.75   43.25  'GYX01     '  999.   VBY  NCEP      45
   -67.70   42.35  'OPCA01    '  999.   VBY  NCEP      45
   -72.00   39.30  'OPCA02    '  999.   VBY  NCEP      45
   -65.70   39.30  'OPCA03    '  999.   VBY  NCEP      45
   -70.10   37.30  'OPCA04    '  999.   VBY  NCEP      45
   -75.720  36.915 '44099     '  999.   DAT  SCRIPPS   90
   -75.59   36.26  '44100     '  999.   DAT  SCRIPPS   90
   -72.60   39.58  '44066     '   5.0   DAT  NDBC      80
   -75.492  36.872 '44093     '  999.   DAT  SCRIPPS   80
   -75.33   35.75  '44095     '  999.   DAT  SCRIPPS   80
   -75.809  37.023 '44096     '  999.   DAT  SCRIPPS   80
   -71.126  40.967 '44097     '  999.   DAT  SCRIPPS   80
   -70.17   42.80  '44098     '  999.   DAT  SCRIPPS   80
   -70.141  43.525 '44007     '   5.0   DAT  NDBC      80
   -70.651  42.346 '44013     '   5.0   DAT  NDBC      80
   -70.186  41.439 '44020     '   5.0   DAT  NDBC      80
   -70.566  42.523 '44029     '   4.0   DAT  NDBC      80
   -70.428  43.181 '44030     '   4.0   DAT  NDBC      80
   -70.060  43.570 '44031     '   4.0   DAT  NDBC      80
   -69.355  43.716 '44032     '   4.0   DAT  NDBC      80
   -68.998  44.055 '44033     '   4.0   DAT  NDBC      80
   -68.109  44.106 '44034     '   4.0   DAT  NDBC      80
   -72.655  41.138 '44039     '   3.5   DAT  NDBC      80
   -73.580  40.956 '44040     '   3.5   DAT  NDBC      80
   -76.391  39.152 '44043     '   3.0   DAT  NDBC      80
   -75.183  38.883 '44054     ' 999.0   DAT  NDBC      80
   -75.256  39.122 '44055     ' 999.0   DAT  NDBC      80
   -76.257  37.567 '44058     '   3.0   DAT  NDBC      80
   -72.067  41.263 '44060     '   3.5   DAT  NDBC      80
   -77.036  38.788 '44061     '   2.0   DAT  NDBC      80
   -76.415  38.556 '44062     '   3.0   DAT  NDBC      80
   -76.448  38.963 '44063     '   3.0   DAT  NDBC      80
   -76.087  36.998 '44064     '   3.0   DAT  NDBC      80
   -73.703  40.369 '44065     '   5.0   DAT  NDBC      80
   -76.266  37.201 '44072     '   3.0   DAT  NDBC      80
   -75.334  37.757 '44089     ' 999.0   DAT  NDBC      80
   -70.329  41.840 '44090     ' 999.0   DAT  NDBC      80
   -73.77   39.77  '44091     ' 999.0   DAT  NDBC      80
   -70.632  42.942 '44092     ' 999.0   DAT  NDBC      80
   -73.106  40.585 '44094     ' 999.0   DAT  NDBC      80
   -63.408  44.500 '44172     ' 999.0   DAT  NDBC     360
   -57.341  47.263 '44235     ' 999.0   DAT  NDBC     360
   -76.149  37.024 '44087     ' 999.0   DAT  NDBC     360
$AGNT41
$
$AGNT43
$ Western Atlantic (NT) spectra (4) near South America (3) 
   -48.13  -27.70  '31201     '  999.   DAT  SCRIPPS  180
   -48.75  -32.00  'RIO_GRANDE'  999.   VBY  NCEP     360
   -46.25  -28.00  'FLORIPA   '  999.   VBY  NCEP     360
   -43.75  -25.00  'SANTOS    '  999.   VBY  NCEP     360
   -34.567  -8.15  '31052     '  999.   DAT  PNBOIA   180
   -43.088 -23.031 '31260     '  999.   DAT  PNBOIA   180
   -47.367 -28.5   '31374     '  999.   DAT  PNBOIA   180
   -44.933 -25.283 '31051     '  999.   DAT  PNBOIA   180
   -51.353 -32.595 '31053     '  999.   DAT  PNBOIA   180
   -42.187 -22.994 'SIODOC    '  999.   VBY  NCEP     360
   -44.270 -23.42  'ILHAGRANDE'  999.   VBY  NCEP     360
   -43.46  -23.16  'RECREIO   '  999.   VBY  NCEP     360
   -43.12  -23.11  'CAGARRAS  '  999.   VBY  NCEP     360
   -49.81  -31.52  '31375     '  999.   DAT  WMO      360
$AGNT43
$
$AGXT43
$ Tropical Belt (XT) spectra (4) near South America (3) 
   -53.08   14.55  '41040     '   5.0   DAT  NDBC     360
   -46.00   14.53  '41041     '   5.0   DAT  NDBC     360
   -57.90   15.90  '41100     '   5.0   DAT  METFR    360
   -56.20   14.60  '41101     '   5.0   DAT  METFR    360
   -55.00   15.00  'TPC20     '  999.   VBY  NCEP     360
   -38.75  -21.00  'CAMPOS    '  999.   VBY  NCEP     360
   -36.25  -13.00  'SALVADOR  '  999.   VBY  NCEP     360
   -32.50   -8.00  'RECIFE    '  999.   VBY  NCEP     360
   -36.25   -3.00  'FORTALEZA '  999.   VBY  NCEP     360
   -47.50    3.00  'AMAZON    '  999.   VBY  NCEP     360
   -30.00    1.00  'PETER_PAUL'  999.   VBY  NCEP     360
   -5.7833 35.7833 'TANGER    '  999.   VBY  WMO      360 
   -9.6333 30.4167 'AGADIR    '  999.   VBY  WMO      360
   -7.6167 33.6000 'CASABLANCA'  999.   VBY  WMO      360
    3.5     6.0    'LAGOS     '  999.   VBY  WMO      360
    5.0     5.0    'FORCADOS  '  999.   VBY  WMO      360
    7.0     4.0    'NIGERDELTA'  999.   VBY  WMO      360
    8.0     4.0    'CALABAR   '  999.   VBY  WMO      360
   -50.949  14.754 '41060     '   2.7   DAT  NDBC     360
   -60.848  11.185 '42087     '   3.4   DAT  NDBC     360
   -60.521  11.301 '42088     '   3.4   DAT  NDBC     360
$AGXT43
$
$AGXT40
$ Tropical Belt (XT) spectra (4) in Pacific Ocean and Pacific Isles (0)
   -83.75    0.00  'TPC00     '  999.   VBY  NCEP     360
   -93.75    0.00  'TPC04     '  999.   VBY  NCEP     360
   102.00   -5.00  'P_ENGGANO '  999.   VBY  NCEP     360
   107.00    0.00  'P_PENJAN  '  999.   VBY  NCEP     360
   110.00   -5.00  'SEMARANG  '  999.   VBY  NCEP     360
   132.00    1.00  'P_IGI     '  999.   VBY  NCEP     360
   100.00    4.00  'P_PANGKOR '  999.   VBY  NCEP     100
   123.00    3.00  'BORNEO    '  999.   VBY  NCEP     360
   126.00    1.00  'P_GUREDA  '  999.   VBY  NCEP     100
  -125.032  10.051 '43010     '   3.5   DAT  NDBC     360
  -144.668  13.729 '52009     '   5.0   DAT  NDBC     360
$AGXT40
$
$AGET43
$ Eastern Atlantic (ET) spectra (3) near Europe (3)
    -5.00   45.20  '62001     '   3.0   DAT  UKMO     360
   -20.00   41.60  '62002     '  999.   DAT  UNKNOWN  360
   -12.40   48.70  '62029     '   3.0   DAT  UKMO     360
    -7.90   51.40  '62023     '  999.   DAT  UNKNOWN  360
    -5.60   48.50  '62052     '  999.   DAT  METFR    100
   -13.30   51.00  '62081     '   3.0   DAT  UKMO     360
   -11.20   53.13  '62090     '   4.5   DAT  IDT      100
    -5.42   53.47  '62091     '   4.5   DAT  IDT       60
   -10.55   51.22  '62092     '   4.5   DAT  IDT      100
    -9.07   54.67  '62093     '   4.5   DAT  IDT       60
    -6.70   51.69  '62094     '   4.5   DAT  IDT       60
   -15.92   53.06  '62095     '   4.5   DAT  IDT      100
    -2.90   49.90  '62103     '  14.0   DAT  UKMO     360
   -12.36   54.54  '62105     '   3.0   DAT  UKMO     360
    -9.90   57.00  '62106     '   4.5   DAT  UKMO     360
    -6.10   50.10  '62107     '  14.0   DAT  UKMO     360
   -19.50   53.50  '62108     '   3.0   DAT  UKMO     360
    -8.50   47.50  '62163     '   3.0   DAT  UKMO     360
    -4.70   52.30  '62301     '   3.0   DAT  UKMO      25
    -5.10   51.60  '62303     '   3.0   DAT  UKMO      25
     0.00   50.40  '62305     '  14.0   DAT  UKMO      25
     2.00   51.40  '62170     ' 999.0   DAT  UKMO      25
   -11.40   59.10  '64045     '   3.0   DAT  UKMO     360
    -4.50   60.70  '64046     '   3.0   DAT  UKMO     360
   -23.10   64.05  'TFGSK     '  999.   DAT  UNKNOWN   60
   -15.20   64.00  'TFHFN     '  999.   DAT  UNKNOWN   60
   -20.35   63.00  'TFSRT     '  999.   DAT  UNKNOWN   60
     7.80   64.30  'LF3F      '  999.   DAT  UNKNOWN  360
     1.10   55.30  '62026     '  999.   DAT  UNKNOWN  360
     0.00   57.00  '62109     '  999.   DAT  UNKNOWN   25
     0.40   58.10  '62111     '  999.   DAT  UNKNOWN   25
     1.30   58.70  '62112     '  999.   DAT  UNKNOWN   25
     1.40   57.70  '62116     '  999.   DAT  UNKNOWN  360
     0.00   57.90  '62117     '  999.   DAT  UNKNOWN   15
     2.00   57.00  '62119     '  999.   DAT  UNKNOWN   25
     1.40   58.70  '62128     '  999.   DAT  UNKNOWN   25
     2.00   56.40  '62132     '  999.   DAT  UNKNOWN   25
     1.00   57.10  '62133     '  999.   DAT  UNKNOWN   15
     2.10   53.00  '62142     '  999.   DAT  PRIV      30
     1.80   57.70  '62143     '  999.   DAT  UNKNOWN   25
     1.70   53.40  '62144     '  999.   DAT  PRIV      45
     2.80   53.10  '62145     '  999.   DAT  PRIV     360
     1.80   57.00  '62152     '  999.   DAT  UNKNOWN   25
     0.50   57.40  '62162     '  999.   DAT  UNKNOWN   25
     0.50   57.20  '62164     '  999.   DAT  PRIV      15
     1.90   51.10  '62304     '  14.0   DAT  UKMO      25
     1.70   60.60  '63055     '  999.   DAT  UNKNOWN   25
     1.60   59.50  '63056     '  999.   DAT  UNKNOWN   25
     1.50   59.20  '63057     '  999.   DAT  UNKNOWN  360
     1.10   61.20  '63103     '  999.   DAT  UNKNOWN   15
     1.70   60.80  '63108     '  999.   DAT  UNKNOWN   15
     1.50   59.50  '63110     '  999.   DAT  PRIV      15
     1.00   61.10  '63112     '  999.   DAT  PRIV     360
     1.70   61.00  '63113     '  999.   DAT  PRIV     100
     1.30   61.60  '63115     '  999.   DAT  PRIV      25
     2.30   61.20  'LF3J      '  999.   DAT  UNKNOWN   25
     3.70   60.60  'LF4B      '  999.   DAT  UNKNOWN  360
     2.20   59.60  'LF4H      '  999.   DAT  UNKNOWN   25
     1.90   58.40  'LF4C      '  999.   DAT  UNKNOWN   25
     3.20   56.50  'LF5U      '  999.   DAT  UNKNOWN   60
     3.28   51.99  'EURO      '  999.   DAT  MVEW      60
     3.22   53.22  'K13       '  999.   DAT  MVEW      25
    -3.03   43.63  '62024     '  999.   DAT  PDES      25
    -7.62   44.07  '62082     '  999.   DAT  PDES      25
    -9.40   42.12  '62084     '  999.   DAT  PDES      25
    -6.97   36.48  '62085     '  999.   DAT  PDES      25
   -15.82   28.18  '13130     '  999.   DAT  PDES      25
   -16.58   28.00  '13131     '  999.   DAT  PDES      25
     0.90   57.70  '62118     '  999.   DAT  UNKNOWN   15
     2.10   57.10  '62146     '  999.   DAT  UNKNOWN   25
     1.50   59.50  '63111     '  10.0   XDT  PRIV       0
     6.33   55.00  'BSH01     '  999.   DAT  UNKNOWN   60
     7.89   54.16  'BSH02     '  999.   DAT  UNKNOWN   60
     8.12   54.00  'BSH03     '  999.   DAT  UNKNOWN   60
     6.58   54.00  'BSH04     '  999.   DAT  UNKNOWN   60
     8.22   54.92  'BSH05     '  999.   DAT  UNKNOWN   60
$AGET43
$
$AGAC43
$ Arctic Ocean (AC) spectra (4) non-descript (3)
   -25.00   65.69  'TFBLK     '  999.   DAT  UNKNOWN   60
   -18.20   66.50  'TFGRS     '  999.   DAT  UNKNOWN   60
   -13.50   65.65  'TFKGR     '  999.   DAT  UNKNOWN   60
     7.30   65.30  'LF3N      '  999.   DAT  UNKNOWN   60
     8.10   66.00  'LF5T      '  999.   DAT  UNKNOWN  360
     2.00   66.00  'LDWR      '  999.   DAT  UNKNOWN  360
    21.10   71.60  '3FYT      '  999.   DAT  UNKNOWN  360
    15.50   73.50  'LFB1      '  999.   DAT  OCNOR    360
    30.00   74.00  'LFB2      '  999.   DAT  OCNOR    360
    -9.26   68.48  '64071     '  999.   DAT  UNKNOWN   60
  -166.071  70.025 '48012     '   3.0   DAT  NDBC     360
  -169.454  65.011 '48114     ' 999.0   DAT  NDBC     360
  -146.040  70.370 '48211     ' 999.0   DAT  NDBC     360
  -150.279  70.874 '48212     ' 999.0   DAT  NDBC     360
  -164.133  71.502 '48213     ' 999.0   DAT  NDBC     360
  -165.248  70.872 '48214     ' 999.0   DAT  NDBC     360
  -167.952  71.758 '48216     ' 999.0   DAT  NDBC     360
$AGAC43
$
$AGIO45
$ Indian Ocean (I) spectra (4) non-descript (5)
    72.49   17.02  '23092     '  999.   DAT  UNKNOWN   20
    73.75   15.40  '23093     '  999.   DAT  UNKNOWN  120
    74.50   12.94  '23094     '  999.   DAT  UNKNOWN  120
    80.39   13.19  '23096     '  999.   DAT  UNKNOWN  120
    69.24   15.47  '23097     '  999.   DAT  UNKNOWN  360
    72.51   10.65  '23098     '  999.   DAT  UNKNOWN  360
    90.74   12.14  '23099     '  999.   DAT  UNKNOWN  360
    87.56   18.35  '23100     '  999.   DAT  UNKNOWN  120
    83.27   13.97  '23101     '  999.   DAT  UNKNOWN  360
    87.50   15.00  '23168     '  999.   DAT  UNKNOWN  360
    90.14   18.13  '23169     '  999.   DAT  UNKNOWN  360
    72.66    8.33  '23170     '  999.   DAT  UNKNOWN  360
    72.00   12.50  '23172     '  999.   DAT  UNKNOWN  360
    78.57    8.21  '23173     '  999.   DAT  UNKNOWN  120
    81.53   11.57  '23174     '  999.   DAT  UNKNOWN  360
    93.00    6.00  'G_NICOBAR '  999.   VBY  NCEP     360
   116.14  -19.59  '56002     '  999.   DAT  UNKNOWN  120
   115.40  -32.11  '56005     '  999.   DAT  UNKNOWN   50
   114.78  -33.36  '56006     '  999.   DAT  UNKNOWN  120
   114.94  -21.41  '56007     '  999.   DAT  UNKNOWN   50
    22.17  -34.97  'AGULHAS_FA'  10.0   DAT  PRIV     360
   104.00    6.00  'MALAY01   '  999.   VBY  NCEP     100
   105.00    3.00  'MALAY02   '  999.   VBY  NCEP     100
   110.00    3.00  'MALAY03   '  999.   VBY  NCEP     100
   113.00    5.00  'MALAY04   '  999.   VBY  NCEP     100
   116.00    7.50  'MALAY05   '  999.   VBY  NCEP     100
   117.00    7.50  'MALAY06   '  999.   VBY  NCEP     100
   121.90  -34.00  '56010     '  999.   DAT  UNKNOWN   50
   114.10  -21.70  '56012     '  999.   DAT  UNKNOWN   50
   136.20  -36.10  'CADUCOU   '  999.   VBY  UNKNOWN  120
   139.00  -38.00  'SWROBE    '  999.   VBY  UNKNOWN  120
   142.45  -39.20  'WBAST1    '  999.   VBY  UNKNOWN  120
   141.50  -40.00  'WBAST2    '  999.   VBY  UNKNOWN  120
   151.00  -40.00  'EBAST     '  999.   VBY  UNKNOWN  120
   146.50  -40.50  'CBAST     '  999.   VBY  UNKNOWN  120
   144.60  -42.30  'CSORRELL  '  999.   VBY  UNKNOWN  120
   144.50  -40.10  'SEKING    '  999.   VBY  UNKNOWN  120
   143.80  -39.20  'NKING     '  999.   VBY  UNKNOWN  120
   144.85  -38.60  'PNEPEAN   '  999.   VBY  UNKNOWN  120
   147.40  -39.20  'EHOGAN    '  999.   VBY  UNKNOWN  120
   147.00  -44.00  'STHSEC    '  999.   VBY  UNKNOWN  120
   149.50  -41.50  'EBICHENO  '  999.   VBY  UNKNOWN  120
   133.50  -33.50  'WCAPYORK  '  999.   VBY  UNKNOWN  120
   114.617 -19.785 'JANSZ     '  999.   VBY  UNKNOWN  120
    85.00   12.60  '23167     '  999.   DAT  UNKNOWN  360
    70.00   11.02  '23171     '  999.   DAT  UNKNOWN  360
    91.66   10.52  '23451     '  999.   DAT  UNKNOWN  120
    89.04   10.97  '23455     '  999.   DAT  UNKNOWN  120
    86.98    9.99  '23456     '  999.   DAT  UNKNOWN  120
    70.10    5.16  '23491     '  999.   DAT  UNKNOWN  120
    68.08   13.89  '23492     '  999.   DAT  UNKNOWN  120
    66.98   11.12  '23493     '  999.   DAT  UNKNOWN  120
    75.00    6.46  '23494     '  999.   DAT  UNKNOWN  120
    68.97    7.13  '23495     '  999.   DAT  UNKNOWN  120
    24.988 -34.060 'JEFFREYBAY'  999.   VBY  NCEP     360
    27.933 -33.033 'EASTLONDON'  999.   VBY  NCEP     360
    17.967 -33.050 'SALDANHABY'  999.   VBY  NCEP     360
    18.283 -34.200 'CAPEPOINT '  999.   VBY  NCEP     360
    22.167 -34.967 'FAPLATFORM'  999.   VBY  NCEP     360
    22.150 -34.117 'MOSSELBAY '  999.   VBY  NCEP     360
$AGIO45
$
$ END of AWIPS Section
$ 
$ Non-AWIPS sites, external (BPT) and internal (IBP) boundary points
$
$ Alaska
$ Virtual buoys for the North Slope DAT
  -160.00   72.00  'Alaska_NS1'   999   VBY  NCEP      360
  -150.00   72.00  'Alaska_NS2'   999   VBY  NCEP      360
  -140.00   72.00  'Alaska_NS3'   999   VBY  NCEP      360
$ Canada DAT
$ USA DAT
  -116.48   23.62  'EFT1      '  999.   VBY  NCEP      25
$ NE Pacific boundary data DAT
$ PG&E Diablo Canyon Power Plant
$    Cooperation with Scripps.
  -123.75   36.00  'DIABLO_01 '  999.   BPT  NCEP      45
$ CDIP Southern California
  -121.50   35.75  'CDIP01    '  999.   BPT  NCEP      45
  -122.00   35.75  'CDIP02    '  999.   BPT  NCEP      45
  -122.00   35.25  'CDIP03    '  999.   BPT  NCEP      45
  -122.00   34.75  'CDIP04    '  999.   BPT  NCEP      45
  -122.00   34.25  'CDIP05    '  999.   BPT  NCEP      45
  -122.00   33.75  'CDIP06    '  999.   BPT  NCEP      45
  -122.00   33.25  'CDIP07    '  999.   BPT  NCEP      45
  -122.00   32.75  'CDIP08    '  999.   BPT  NCEP      45
  -122.00   32.25  'CDIP09    '  999.   BPT  NCEP      45
  -122.00   31.75  'CDIP10    '  999.   BPT  NCEP      45
  -122.00   31.25  'CDIP11    '  999.   BPT  NCEP      45
  -122.00   30.75  'CDIP12    '  999.   BPT  NCEP      45
  -121.75   30.75  'CDIP13    '  999.   BPT  NCEP      45
  -121.25   30.75  'CDIP14    '  999.   BPT  NCEP      45
  -120.75   30.75  'CDIP15    '  999.   BPT  NCEP      45
  -120.25   30.75  'CDIP16    '  999.   BPT  NCEP      45
  -119.75   30.75  'CDIP17    '  999.   BPT  NCEP      45
  -119.25   30.75  'CDIP18    '  999.   BPT  NCEP      45
  -118.75   30.75  'CDIP19    '  999.   BPT  NCEP      45
  -118.25   30.75  'CDIP20    '  999.   BPT  NCEP      45
  -117.75   30.75  'CDIP21    '  999.   BPT  NCEP      45
  -117.25   30.75  'CDIP22    '  999.   BPT  NCEP      45
  -116.75   30.75  'CDIP23    '  999.   BPT  NCEP      45
  -116.25   30.75  'CDIP24    '  999.   BPT  NCEP      45
$ BKMG (Indonesia) Boundary Points
    90.00  -15.00  'BKMG01    '  999.   BPT  NCEP     360
    92.00  -15.00  'BKMG02    '  999.   BPT  NCEP     360
    94.00  -15.00  'BKMG03    '  999.   BPT  NCEP     360
    96.00  -15.00  'BKMG04    '  999.   BPT  NCEP     360
    98.00  -15.00  'BKMG05    '  999.   BPT  NCEP     360
   100.00  -15.00  'BKMG06    '  999.   BPT  NCEP     360
   102.00  -15.00  'BKMG07    '  999.   BPT  NCEP     360
   104.00  -15.00  'BKMG08    '  999.   BPT  NCEP     360
   106.00  -15.00  'BKMG09    '  999.   BPT  NCEP     360
   108.00  -15.00  'BKMG10    '  999.   BPT  NCEP     360
   110.00  -15.00  'BKMG11    '  999.   BPT  NCEP     360
   112.00  -15.00  'BKMG12    '  999.   BPT  NCEP     360
   114.00  -15.00  'BKMG13    '  999.   BPT  NCEP     360
   116.00  -15.00  'BKMG14    '  999.   BPT  NCEP     360
   118.00  -15.00  'BKMG15    '  999.   BPT  NCEP     360
   120.00  -15.00  'BKMG16    '  999.   BPT  NCEP     360
   122.00  -15.00  'BKMG17    '  999.   BPT  NCEP     360
   124.00  -15.00  'BKMG18    '  999.   BPT  NCEP     360
   124.50  -15.00  'BKMG19    '  999.   BPT  NCEP     360
   137.00  -15.00  'BKMG20    '  999.   BPT  NCEP     360
   139.00  -15.00  'BKMG21    '  999.   BPT  NCEP     360
   141.00  -15.00  'BKMG22    '  999.   BPT  NCEP     360
   145.00  -13.50  'BKMG23    '  999.   BPT  NCEP     360
   145.00  -13.00  'BKMG24    '  999.   BPT  NCEP     360
   145.00  -11.00  'BKMG25    '  999.   BPT  NCEP     360
   145.00   -9.00  'BKMG26    '  999.   BPT  NCEP     360
   145.00   -8.00  'BKMG27    '  999.   BPT  NCEP     360
   145.00   -3.00  'BKMG28    '  999.   BPT  NCEP     360
   145.00   -1.00  'BKMG29    '  999.   BPT  NCEP     360
   145.00    1.00  'BKMG30    '  999.   BPT  NCEP     360
   145.00    3.00  'BKMG31    '  999.   BPT  NCEP     360
   145.00    5.00  'BKMG32    '  999.   BPT  NCEP     360
   145.00    7.00  'BKMG33    '  999.   BPT  NCEP     360
   145.00    9.00  'BKMG34    '  999.   BPT  NCEP     360
   145.00   11.00  'BKMG35    '  999.   BPT  NCEP     360
   145.00   13.00  'BKMG36    '  999.   BPT  NCEP     360
   145.00   15.00  'BKMG37    '  999.   BPT  NCEP     360
   143.00   15.00  'BKMG38    '  999.   BPT  NCEP     360
   141.00   15.00  'BKMG39    '  999.   BPT  NCEP     360
   139.00   15.00  'BKMG40    '  999.   BPT  NCEP     360
   137.00   15.00  'BKMG41    '  999.   BPT  NCEP     360
   135.00   15.00  'BKMG42    '  999.   BPT  NCEP     360
   133.00   15.00  'BKMG43    '  999.   BPT  NCEP     360
   131.00   15.00  'BKMG44    '  999.   BPT  NCEP     360
   129.00   15.00  'BKMG45    '  999.   BPT  NCEP     360
   127.00   15.00  'BKMG46    '  999.   BPT  NCEP     360
   125.00   15.00  'BKMG47    '  999.   BPT  NCEP     360
   123.00   15.00  'BKMG48    '  999.   BPT  NCEP     360
   122.50   15.00  'BKMG49    '  999.   BPT  NCEP     360
   120.00   15.00  'BKMG50    '  999.   BPT  NCEP     360
   118.00   15.00  'BKMG51    '  999.   BPT  NCEP     360
   116.00   15.00  'BKMG52    '  999.   BPT  NCEP     360
   114.00   15.00  'BKMG53    '  999.   BPT  NCEP     360
   112.00   15.00  'BKMG54    '  999.   BPT  NCEP     360
   110.00   15.00  'BKMG55    '  999.   BPT  NCEP     360
    97.50   15.00  'BKMG56    '  999.   BPT  NCEP     360
    97.00   15.00  'BKMG57    '  999.   BPT  NCEP     360
    95.00   15.00  'BKMG58    '  999.   BPT  NCEP     360
    93.00   15.00  'BKMG59    '  999.   BPT  NCEP     360
    91.00   15.00  'BKMG60    '  999.   BPT  NCEP     360
    90.00   15.00  'BKMG61    '  999.   BPT  NCEP     360
    90.00   13.00  'BKMG62    '  999.   BPT  NCEP     360
    90.00   11.00  'BKMG63    '  999.   BPT  NCEP     360
    90.00    9.00  'BKMG64    '  999.   BPT  NCEP     360
    90.00    7.00  'BKMG65    '  999.   BPT  NCEP     360
    90.00    5.00  'BKMG66    '  999.   BPT  NCEP     360
    90.00    3.00  'BKMG67    '  999.   BPT  NCEP     360
    90.00    1.00  'BKMG68    '  999.   BPT  NCEP     360
    90.00   -1.00  'BKMG69    '  999.   BPT  NCEP     360
    90.00   -3.00  'BKMG70    '  999.   BPT  NCEP     360
    90.00   -5.00  'BKMG71    '  999.   BPT  NCEP     360
    90.00   -7.00  'BKMG72    '  999.   BPT  NCEP     360
    90.00   -9.00  'BKMG73    '  999.   BPT  NCEP     360
    90.00  -11.00  'BKMG74    '  999.   BPT  NCEP     360
    90.00  -13.00  'BKMG75    '  999.   BPT  NCEP     360
$ South America DAT
   -77.50    6.26  '32488     '  999.   DAT  DIMAR     45
   -77.74    3.52  '32487     '  999.   DAT  DIMAR     45
   -72.22   12.35  '41193     '  999.   DAT  DIMAR    120
$ Japanese buoys DAT
   134.90   28.90  '21004     '  999.  XDT  JAPAN    360
   126.30   28.10  '22001     '  999.  XDT  JAPAN    360
$ South Korean buoys DAT
   129.78   36.35  '22106     '  999.  DAT  SKOREA    100
   126.33   33.00  '22107     '  999.  DAT  SKOREA    100
$ Africa DAT
    57.70  -20.45  'MAUR01    '  999.   DAT  WMO      360
    57.75  -20.10  'MAUR02    '  999.   DAT  WMO      360
    55.00  -25.00  'V14003    '  999.   VBY  WMO      360
    60.00  -25.00  'V14004    '  999.   VBY  WMO      360
    57.00  -20.00  'V14005    '  999.   VBY  WMO      360
    60.00  -20.00  'V14006    '  999.   VBY  WMO      360
    63.00  -20.00  'V14007    '  999.   VBY  WMO      360
    64.00  -19.00  'V14008    '  999.   VBY  WMO      360
    58.00  -18.00  'V14009    '  999.   VBY  WMO      360
    60.00  -16.00  'V14010    '  999.   VBY  WMO      360
    56.00  -10.00  'V14011    '  999.   VBY  WMO      360
    57.00  -11.00  'V14012    '  999.   VBY  WMO      360
    70.00  -25.00  'V14013    '  999.   VBY  WMO      360
    80.00  -25.00  'V14014    '  999.   VBY  WMO      360
    90.00  -25.00  'V53015    '  999.   VBY  WMO      360
    70.00  -15.00  'V14016    '  999.   VBY  WMO      360
    80.00  -15.00  'V14017    '  999.   VBY  WMO      360
    90.00  -15.00  'V53018    '  999.   VBY  WMO      360
    65.00   -5.00  'V23019    '  999.   VBY  WMO      360
    75.00   -5.00  'V23020    '  999.   VBY  WMO      360
    85.00   -5.00  'V23021    '  999.   VBY  WMO      360
    95.00   -5.00  'V23022    '  999.   VBY  WMO      360
    55.00   -5.00  'V14023    '  999.   VBY  WMO      360
    10.929 -17.328 'V14039    '  999.   VBY  WMO      360
    10.953 -18.097 'V14040    '  999.   VBY  WMO      360
    11.681 -19.001 'V14041    '  999.   VBY  WMO      360
    12.250 -20.069 'V14042    '  999.   VBY  WMO      360
    12.653 -20.967 'V14043    '  999.   VBY  WMO      360
    13.223 -21.930 'V14044    '  999.   VBY  WMO      360
    13.418 -22.624 'V14045    '  999.   VBY  WMO      360
    13.584 -23.613 'V14046    '  999.   VBY  WMO      360
    13.659 -24.375 'V14047    '  999.   VBY  WMO      360
    13.951 -25.245 'V14048    '  999.   VBY  WMO      360
    14.032 -26.084 'V14049    '  999.   VBY  WMO      360
    14.191 -26.728 'V14050    '  999.   VBY  WMO      360
    14.536 -27.593 'V14051    '  999.   VBY  WMO      360
    14.968 -28.341 'V14052    '  999.   VBY  WMO      360
    15.676 -29.085 'V14053    '  999.   VBY  WMO      360
    39.750  -5.000 'V14054    '  999.   VBY  WMO      360
    39.750  -5.583 'V14055    '  999.   VBY  WMO      360
    39.750  -6.217 'V14056    '  999.   VBY  WMO      360
    39.800  -6.750 'V14057    '  999.   VBY  WMO      360
    39.917  -7.083 'V14058    '  999.   VBY  WMO      360
    39.750  -7.300 'V14059    '  999.   VBY  WMO      360
    39.750  -8.167 'V14060    '  999.   VBY  WMO      360
    40.250  -8.833 'V14061    '  999.   VBY  WMO      360
    40.250  -9.167 'V14062    '  999.   VBY  WMO      360
    40.250  -9.917 'V14063    '  999.   VBY  WMO      360
    40.583 -10.333 'V14064    '  999.   VBY  WMO      360
    42.000 -11.000 'V14065    '  999.   VBY  WMO      360
    42.000 -12.000 'V14066    '  999.   VBY  WMO      360
    42.000 -13.000 'V14067    '  999.   VBY  WMO      360
    42.000 -14.000 'V14068    '  999.   VBY  WMO      360
    42.000 -15.000 'V14069    '  999.   VBY  WMO      360
    40.250 -17.000 'V14070    '  999.   VBY  WMO      360
    39.000 -17.833 'V14071    '  999.   VBY  WMO      360
    38.250 -18.000 'V14072    '  999.   VBY  WMO      360
    37.250 -19.000 'V14073    '  999.   VBY  WMO      360
    35.500 -20.000 'V14074    '  999.   VBY  WMO      360
    36.000 -21.000 'V14075    '  999.   VBY  WMO      360
    35.567 -21.917 'V14076    '  999.   VBY  WMO      360
    35.583 -22.000 'V14077    '  999.   VBY  WMO      360
    42.833 -22.000 'V14078    '  999.   VBY  WMO      360
    36.000 -23.000 'V14079    '  999.   VBY  WMO      360
    36.833 -24.000 'V14080    '  999.   VBY  WMO      360
    36.000 -25.000 'V14081    '  999.   VBY  WMO      360
    35.000 -25.500 'V14082    '  999.   VBY  WMO      360
    34.000 -26.000 'V14083    '  999.   VBY  WMO      360
    34.000 -27.000 'V14084    '  999.   VBY  WMO      360
$ Boundary Points for Kenya , Madagascar and Seychelles
    40.000  -8.000 'KNY51    '  999.   BPT  WMO      360
    42.000  -8.000 'KNY52    '  999.   BPT  WMO      360
    44.000  -8.000 'KNY53    '  999.   BPT  WMO      360
    46.000  -8.000 'KNY54    '  999.   BPT  WMO      360
    48.000  -8.000 'KNY55    '  999.   BPT  WMO      360
    50.000  -8.000 'KNY56    '  999.   BPT  WMO      360
    52.000  -8.000 'KNY57    '  999.   BPT  WMO      360
    54.000  -8.000 'KNY58    '  999.   BPT  WMO      360
    56.000  -8.000 'KNY59    '  999.   BPT  WMO      360
    58.000  -8.000 'KNY60    '  999.   BPT  WMO      360
    60.000  -8.000 'KNY61    '  999.   BPT  WMO      360
    62.000  -8.000 'KNY62    '  999.   BPT  WMO      360
    64.000  -8.000 'KNY63    '  999.   BPT  WMO      360
    66.000  -8.000 'KNY64    '  999.   BPT  WMO      360
    68.000  -8.000 'KNY65    '  999.   BPT  WMO      360
    70.000  -8.000 'KNY66    '  999.   BPT  WMO      360
    70.000  -6.000 'KNY67    '  999.   BPT  WMO      360
    70.000  -4.000 'KNY68    '  999.   BPT  WMO      360
    70.000  -2.000 'KNY69    '  999.   BPT  WMO      360
    70.000   0.000 'KNY70    '  999.   BPT  WMO      360
    70.000   2.000 'KNY71    '  999.   BPT  WMO      360
    70.000   4.000 'KNY72    '  999.   BPT  WMO      360
    70.000   6.000 'KNY73    '  999.   BPT  WMO      360
    70.000   8.000 'KNY74    '  999.   BPT  WMO      360
    68.000   8.000 'KNY75    '  999.   BPT  WMO      360
    66.000   8.000 'KNY76    '  999.   BPT  WMO      360
    64.000   8.000 'KNY77    '  999.   BPT  WMO      360
    62.000   8.000 'KNY78    '  999.   BPT  WMO      360
    60.000   8.000 'KNY79    '  999.   BPT  WMO      360
    58.000   8.000 'KNY80    '  999.   BPT  WMO      360
    56.000   8.000 'KNY81    '  999.   BPT  WMO      360
    54.000   8.000 'KNY82    '  999.   BPT  WMO      360
    52.000   8.000 'KNY83    '  999.   BPT  WMO      360
    42.000 -18.000 'MDG51    '  999.   BPT  WMO      360
    42.000 -20.000 'MDG52    '  999.   BPT  WMO      360
    42.000 -22.000 'MDG53    '  999.   BPT  WMO      360
    42.000 -24.000 'MDG54    '  999.   BPT  WMO      360
    42.000 -26.000 'MDG55    '  999.   BPT  WMO      360
    42.000 -28.000 'MDG56    '  999.   BPT  WMO      360
    42.000 -30.000 'MDG57    '  999.   BPT  WMO      360
    44.000 -30.000 'MDG58    '  999.   BPT  WMO      360
    46.000 -30.000 'MDG59    '  999.   BPT  WMO      360
    48.000 -30.000 'MDG60    '  999.   BPT  WMO      360
    50.000 -30.000 'MDG61    '  999.   BPT  WMO      360
    52.000 -30.000 'MDG62    '  999.   BPT  WMO      360
    54.000 -30.000 'MDG63    '  999.   BPT  WMO      360
    54.000 -28.000 'MDG64    '  999.   BPT  WMO      360
    54.000 -26.000 'MDG65    '  999.   BPT  WMO      360
    54.000 -24.000 'MDG66    '  999.   BPT  WMO      360
    54.000 -22.000 'MDG67    '  999.   BPT  WMO      360
    54.000 -20.000 'MDG68    '  999.   BPT  WMO      360
    54.000 -18.000 'MDG69    '  999.   BPT  WMO      360
    54.000 -16.000 'MDG70    '  999.   BPT  WMO      360
    54.000 -14.000 'MDG71    '  999.   BPT  WMO      360
    54.000 -12.000 'MDG72    '  999.   BPT  WMO      360
    54.000 -10.000 'MDG73    '  999.   BPT  WMO      360
    52.000 -10.000 'MDG74    '  999.   BPT  WMO      360
    50.000 -10.000 'MDG75    '  999.   BPT  WMO      360
    48.000 -10.000 'MDG76    '  999.   BPT  WMO      360
    46.000 -10.000 'MDG77    '  999.   BPT  WMO      360
    44.000 -10.000 'MDG78    '  999.   BPT  WMO      360
    44.000 -12.000 'MDG79    '  999.   BPT  WMO      360
    44.000 -14.000 'MDG80    '  999.   BPT  WMO      360
    42.000 -16.000 'MDG81    '  999.   BPT  WMO      360
    50.000 -10.000 'SYC51    '  999.   BPT  WMO      360
    52.000 -10.000 'SYC52    '  999.   BPT  WMO      360
    54.000 -10.000 'SYC53    '  999.   BPT  WMO      360
    56.000 -10.000 'SYC54    '  999.   BPT  WMO      360
    58.000 -10.000 'SYC55    '  999.   BPT  WMO      360
    60.000 -10.000 'SYC56    '  999.   BPT  WMO      360
    60.000  -8.000 'SYC57    '  999.   BPT  WMO      360
    60.000  -6.000 'SYC58    '  999.   BPT  WMO      360
    60.000  -4.000 'SYC59    '  999.   BPT  WMO      360
    60.000  -2.000 'SYC60    '  999.   BPT  WMO      360
    60.000   0.000 'SYC61    '  999.   BPT  WMO      360
    58.000   0.000 'SYC62    '  999.   BPT  WMO      360
    56.000   0.000 'SYC63    '  999.   BPT  WMO      360
    54.000   0.000 'SYC64    '  999.   BPT  WMO      360
    52.000   0.000 'SYC65    '  999.   BPT  WMO      360
    50.000   0.000 'SYC66    '  999.   BPT  WMO      360
    50.000  -2.000 'SYC67    '  999.   BPT  WMO      360
    50.000  -4.000 'SYC68    '  999.   BPT  WMO      360
    50.000  -6.000 'SYC69    '  999.   BPT  WMO      360
    50.000  -8.000 'SYC70    '  999.   BPT  WMO      360
    50.000 -10.000 'SYC71    '  999.   BPT  WMO      360
$
$ Hawaii BPT
$
  -157.25   20.75  'HNL51     '  999.   IBP  NCEP      45
  -157.806  20.160 'HNL52     '  999.   IBP  NCEP      45
  -158.540  20.569 'HNL53     '  999.   IBP  NCEP      45
  -159.274  20.978 'HNL54     '  999.   IBP  NCEP      45
  -158.745  21.787 'HNL55     '  999.   IBP  NCEP      45
  -158.170  22.665 'HNL56     '  999.   IBP  NCEP      45
  -157.422  22.264 'HNL57     '  999.   IBP  NCEP      45
  -156.674  21.874 'HNL58     '  999.   IBP  NCEP      45
  -157.00   21.50  'HNL59     '  999.   IBP  NCEP      45
$
  -161.118  21.337 'HNL61     '  999.   IBP  NCEP      45
  -160.707  22.494 'HNL62     '  999.   IBP  NCEP      45
  -160.295  23.650 'HNL63     '  999.   IBP  NCEP      45
  -159.275  23.198 'HNL64     '  999.   IBP  NCEP      45
  -158.254  22.746 'HNL65     '  999.   IBP  NCEP      45
  -158.759  21.799 'HNL66     '  999.   IBP  NCEP      45
  -159.243  20.823 'HNL67     '  999.   IBP  NCEP      45
  -160.180  21.080 'HNL68     '  999.   IBP  NCEP      45
$
$ NE Atlantic boundary data
$
   -81.30   30.67  'CHS51     '  999.   IBP  NCEP      45
   -80.50   30.67  'CHS52     '  999.   IBP  NCEP      45
   -79.80   30.67  'CHS53     '  999.   IBP  NCEP      45
   -79.00   30.67  'CHS54     '  999.   IBP  NCEP      45
   -78.10   30.67  'CHS55     '  999.   IBP  NCEP      45
   -78.10   31.4   'CHS56     '  999.   IBP  NCEP      45
   -78.10   32.13  'CHS57     '  999.   IBP  NCEP      45
   -78.10   32.86  'CHS58     '  999.   IBP  NCEP      45
   -78.10   33.58  'CHS59     '  999.   IBP  NCEP      45
   -78.50   33.58  'CHS60     '  999.   IBP  NCEP      45
   -78.90   33.58  'CHS61     '  999.   IBP  NCEP      45
$
   -80.25   28.50  'JAX51     '  999.   IBP  NCEP      45
   -79.50   28.50  'JAX52     '  999.   IBP  NCEP      45
   -78.50   28.50  'JAX53     '  999.   IBP  NCEP      45
   -78.50   29.75  'JAX54     '  999.   IBP  NCEP      45
   -78.50   31.25  'JAX55     '  999.   IBP  NCEP      45
   -78.50   32.50  'JAX56     '  999.   IBP  NCEP      45
   -79.25   32.50  'JAX57     '  999.   IBP  NCEP      45
   -80.00   32.50  'JAX58     '  999.   IBP  NCEP      45
$
   -80.20   28.70  'JXFL51    '  999.   IBP  NCEP      45
   -79.70   28.70  'JXFL52    '  999.   IBP  NCEP      45
   -79.30   28.70  'JXFL53    '  999.   IBP  NCEP      45
   -79.30   29.20  'JXFL54    '  999.   IBP  NCEP      45
   -79.30   29.70  'JXFL55    '  999.   IBP  NCEP      45
   -79.30   30.20  'JXFL56    '  999.   IBP  NCEP      45
   -79.30   30.70  'JXFL57    '  999.   IBP  NCEP      45
   -79.30   31.20  'JXFL58    '  999.   IBP  NCEP      45
   -79.30   31.60  'JXFL59    '  999.   IBP  NCEP      45
   -79.30   32.00  'JXFL60    '  999.   IBP  NCEP      45
   -79.80   32.00  'JXFL61    '  999.   IBP  NCEP      45
   -80.20   32.00  'JXFL62    '  999.   IBP  NCEP      45
   -80.50   32.00  'JXFL63    '  999.   IBP  NCEP      45
$
   -72.40   40.60  'MNE51     '  999.   IBP  NCEP      45
   -72.40   40.20  'MNE52     '  999.   IBP  NCEP      45
   -71.60   40.20  'MNE53     '  999.   IBP  NCEP      45
   -70.80   40.20  'MNE54     '  999.   IBP  NCEP      45
   -70.00   40.20  'MNE55     '  999.   IBP  NCEP      45
   -69.20   40.20  'MNE56     '  999.   IBP  NCEP      45
   -68.40   40.20  'MNE57     '  999.   IBP  NCEP      45
   -67.60   40.20  'MNE58     '  999.   IBP  NCEP      45
   -66.80   40.20  'MNE59     '  999.   IBP  NCEP      45
   -66.80   41.00  'MNE60     '  999.   IBP  NCEP      45
   -66.80   41.80  'MNE61     '  999.   IBP  NCEP      45
   -66.80   42.60  'MNE62     '  999.   IBP  NCEP      45
   -66.80   43.40  'MNE63     '  999.   IBP  NCEP      45
   -66.80   44.20  'MNE64     '  999.   IBP  NCEP      45
   -66.80   44.50  'MNE65     '  999.   IBP  NCEP      45
$
$ Peurto Rico boundary points
$
   -68.00   17.00  'SJU51     '  999.   IBP  NCEP      45
   -68.00   17.50  'SJU52     '  999.   IBP  NCEP      45
   -68.00   18.00  'SJU53     '  999.   IBP  NCEP      45
   -68.00   18.50  'SJU54     '  999.   IBP  NCEP      45
   -68.00   19.00  'SJU55     '  999.   IBP  NCEP      45
   -68.00   19.50  'SJU56     '  999.   IBP  NCEP      45
   -67.50   19.50  'SJU57     '  999.   IBP  NCEP      45
   -67.00   19.50  'SJU58     '  999.   IBP  NCEP      45
   -66.50   19.50  'SJU59     '  999.   IBP  NCEP      45
   -66.00   19.50  'SJU60     '  999.   IBP  NCEP      45
   -65.50   19.50  'SJU61     '  999.   IBP  NCEP      45
   -65.00   19.50  'SJU62     '  999.   IBP  NCEP      45
   -64.50   19.50  'SJU63     '  999.   IBP  NCEP      45
   -64.00   19.50  'SJU64     '  999.   IBP  NCEP      45
   -64.00   19.00  'SJU65     '  999.   IBP  NCEP      45
   -64.00   18.50  'SJU66     '  999.   IBP  NCEP      45
   -64.00   18.00  'SJU67     '  999.   IBP  NCEP      45
   -64.00   17.50  'SJU68     '  999.   IBP  NCEP      45
   -64.00   17.00  'SJU69     '  999.   IBP  NCEP      45
   -64.50   17.00  'SJU70     '  999.   IBP  NCEP      45
   -65.00   17.00  'SJU71     '  999.   IBP  NCEP      45
   -65.50   17.00  'SJU72     '  999.   IBP  NCEP      45
   -66.00   17.00  'SJU73     '  999.   IBP  NCEP      45
   -66.50   17.00  'SJU74     '  999.   IBP  NCEP      45
   -67.00   17.00  'SJU75     '  999.   IBP  NCEP      45
   -67.50   17.00  'SJU76     '  999.   IBP  NCEP      45
   -68.00   17.00  'SJU77     '  999.   IBP  NCEP      45
$
$ Bermuda boundary data
$
   -65.50   31.50  'BER51     '  999.   IBP  NCEP      45
   -65.25   31.50  'BER52     '  999.   IBP  NCEP      45
   -65.00   31.50  'BER53     '  999.   IBP  NCEP      45
   -64.75   31.50  'BER54     '  999.   IBP  NCEP      45
   -64.50   31.50  'BER55     '  999.   IBP  NCEP      45
   -64.25   31.50  'BER56     '  999.   IBP  NCEP      45
   -64.00   31.50  'BER57     '  999.   IBP  NCEP      45
   -64.00   31.75  'BER58     '  999.   IBP  NCEP      45
   -64.00   32.00  'BER59     '  999.   IBP  NCEP      45
   -64.00   32.25  'BER60     '  999.   IBP  NCEP      45
   -64.00   32.50  'BER61     '  999.   IBP  NCEP      45
   -64.00   32.75  'BER62     '  999.   IBP  NCEP      45
   -64.00   33.00  'BER63     '  999.   IBP  NCEP      45
   -64.25   33.00  'BER64     '  999.   IBP  NCEP      45
   -64.50   33.00  'BER65     '  999.   IBP  NCEP      45
   -64.75   33.00  'BER66     '  999.   IBP  NCEP      45
   -64.00   33.00  'BER67     '  999.   IBP  NCEP      45
   -65.25   33.00  'BER68     '  999.   IBP  NCEP      45
   -65.50   33.00  'BER69     '  999.   IBP  NCEP      45
   -65.50   32.75  'BER70     '  999.   IBP  NCEP      45
   -65.50   32.50  'BER71     '  999.   IBP  NCEP      45
   -65.50   32.25  'BER72     '  999.   IBP  NCEP      45
   -65.50   32.00  'BER73     '  999.   IBP  NCEP      45
   -65.50   31.75  'BER74     '  999.   IBP  NCEP      45
$
$ Gulf of Mexico boundary data
$
   -97.     23.    'SRH51     '  999.   IBP  NCEP      45
   -96.     23.    'SRH52     '  999.   IBP  NCEP      45
   -95.     23.    'SRH53     '  999.   IBP  NCEP      45
   -94.     23.    'SRH54     '  999.   IBP  NCEP      45
   -93.     23.    'SRH55     '  999.   IBP  NCEP      45
   -92.     23.    'SRH56     '  999.   IBP  NCEP      45
   -91.     23.    'SRH57     '  999.   IBP  NCEP      45
   -90.     23.    'SRH58     '  999.   IBP  NCEP      45
   -89.     23.    'SRH59     '  999.   IBP  NCEP      45
   -88.     23.    'SRH60     '  999.   IBP  NCEP      45
   -87.     23.    'SRH61     '  999.   IBP  NCEP      45
   -86.     23.    'SRH62     '  999.   IBP  NCEP      45
   -85.     23.    'SRH63     '  999.   IBP  NCEP      45
   -79.     23.    'SRH64     '  999.   IBP  NCEP      45
   -78.     23.    'SRH65     '  999.   IBP  NCEP      45
   -78.     28.    'SRH66     '  999.   IBP  NCEP      45
   -78.     29.    'SRH67     '  999.   IBP  NCEP      45
   -78.     30.    'SRH68     '  999.   IBP  NCEP      45
   -78.     31.    'SRH69     '  999.   IBP  NCEP      45
   -78.     32.    'SRH70     '  999.   IBP  NCEP      45
   -78.     33.    'SRH71     '  999.   IBP  NCEP      45
$
   -96.91   25.26  'BRO51     '  999.   IBP  NCEP      45
   -96.41   25.26  'BRO52     '  999.   IBP  NCEP      45
   -95.91   25.26  'BRO53     '  999.   IBP  NCEP      45
   -95.41   25.26  'BRO54     '  999.   IBP  NCEP      45
   -95.41   25.76  'BRO55     '  999.   IBP  NCEP      45
   -95.41   26.26  'BRO56     '  999.   IBP  NCEP      45
   -95.41   26.76  'BRO57     '  999.   IBP  NCEP      45
   -95.41   27.26  'BRO58     '  999.   IBP  NCEP      45
   -95.41   27.76  'BRO59     '  999.   IBP  NCEP      45
   -95.41   28.26  'BRO60     '  999.   IBP  NCEP      45
$
   -96.87   27.    'HGX51     '  999.   IBP  NCEP      45
   -96.37   27.    'HGX52     '  999.   IBP  NCEP      45
   -95.87   27.    'HGX53     '  999.   IBP  NCEP      45
   -95.37   27.    'HGX54     '  999.   IBP  NCEP      45
   -94.87   27.    'HGX55     '  999.   IBP  NCEP      45
   -94.37   27.    'HGX56     '  999.   IBP  NCEP      45
   -93.87   27.    'HGX57     '  999.   IBP  NCEP      45
   -93.37   27.    'HGX58     '  999.   IBP  NCEP      45
   -93.37   27.5   'HGX59     '  999.   IBP  NCEP      45
   -93.37   28.    'HGX60     '  999.   IBP  NCEP      45
   -93.37   28.5   'HGX61     '  999.   IBP  NCEP      45
   -93.37   29.    'HGX62     '  999.   IBP  NCEP      45
$
   -97.02   25.75  'CRP51     '  999.   IBP  NCEP      45
   -96.73   25.75  'CRP52     '  999.   IBP  NCEP      45
   -96.48   25.75  'CRP53     '  999.   IBP  NCEP      45
   -96.16   25.76  'CRP54     '  999.   IBP  NCEP      45
   -95.77   25.73  'CRP55     '  999.   IBP  NCEP      45
   -95.39   25.73  'CRP56     '  999.   IBP  NCEP      45
   -95.15   25.75  'CRP57     '  999.   IBP  NCEP      45
   -95.14   25.98  'CRP58     '  999.   IBP  NCEP      45
   -95.13   26.35  'CRP59     '  999.   IBP  NCEP      45
   -95.13   26.68  'CRP60     '  999.   IBP  NCEP      45
   -95.11   27.00  'CRP61     '  999.   IBP  NCEP      45
   -95.10   27.35  'CRP62     '  999.   IBP  NCEP      45
   -95.09   27.76  'CRP63     '  999.   IBP  NCEP      45
   -95.09   28.10  'CRP64     '  999.   IBP  NCEP      45
   -95.08   28.36  'CRP65     '  999.   IBP  NCEP      45
   -95.07   28.64  'CRP66     '  999.   IBP  NCEP      45
   -95.06   28.86  'CRP67     '  999.   IBP  NCEP      45
   -95.05   29.09  'CRP68     '  999.   IBP  NCEP      45
$
   -97.00   26.00  'CCTX51    '  999.   IBP  NCEP      45
   -96.50   26.00  'CCTX52    '  999.   IBP  NCEP      45
   -96.00   26.00  'CCTX53    '  999.   IBP  NCEP      45
   -95.50   26.00  'CCTX54    '  999.   IBP  NCEP      45
   -95.00   26.00  'CCTX55    '  999.   IBP  NCEP      45
   -95.00   26.50  'CCTX56    '  999.   IBP  NCEP      45
   -95.00   27.00  'CCTX57    '  999.   IBP  NCEP      45
   -95.00   27.50  'CCTX58    '  999.   IBP  NCEP      45
   -95.00   28.00  'CCTX59    '  999.   IBP  NCEP      45
   -95.00   28.50  'CCTX60    '  999.   IBP  NCEP      45
   -95.00   28.80  'CCTX61    '  999.   IBP  NCEP      45
$
   -95.03   28.55  'LCH51     '  999.   IBP  NCEP      45
   -95.03   28.23  'LCH52     '  999.   IBP  NCEP      45
   -95.03   27.79  'LCH53     '  999.   IBP  NCEP      45
   -95.03   27.41  'LCH54     '  999.   IBP  NCEP      45
   -94.45   27.41  'LCH55     '  999.   IBP  NCEP      45
   -93.53   27.41  'LCH56     '  999.   IBP  NCEP      45
   -92.66   27.41  'LCH57     '  999.   IBP  NCEP      45
   -91.69   27.41  'LCH58     '  999.   IBP  NCEP      45
   -90.43   27.41  'LCH59     '  999.   IBP  NCEP      45
   -90.43   27.74  'LCH60     '  999.   IBP  NCEP      45
   -90.43   28.16  'LCH61     '  999.   IBP  NCEP      45
   -90.43   28.52  'LCH62     '  999.   IBP  NCEP      45
   -90.43   28.68  'LCH63     '  999.   IBP  NCEP      45
$
   -91.80   28.90  'LIX51     '  999.   IBP  NCEP      45
   -91.80   28.50  'LIX52     '  999.   IBP  NCEP      45
   -91.80   28.    'LIX53     '  999.   IBP  NCEP      45
   -91.80   27.5   'LIX54     '  999.   IBP  NCEP      45
   -91.30   27.5   'LIX55     '  999.   IBP  NCEP      45
   -90.80   27.5   'LIX56     '  999.   IBP  NCEP      45
   -90.30   27.5   'LIX57     '  999.   IBP  NCEP      45
   -89.80   27.5   'LIX58     '  999.   IBP  NCEP      45
   -89.30   27.5   'LIX59     '  999.   IBP  NCEP      45
   -88.80   27.5   'LIX60     '  999.   IBP  NCEP      45
   -88.30   27.5   'LIX61     '  999.   IBP  NCEP      45
   -87.80   27.5   'LIX62     '  999.   IBP  NCEP      45
   -87.40   27.5   'LIX63     '  999.   IBP  NCEP      45
   -87.40   28.    'LIX64     '  999.   IBP  NCEP      45
   -87.40   28.5   'LIX65     '  999.   IBP  NCEP      45
   -87.40   29.    'LIX66     '  999.   IBP  NCEP      45
   -87.40   29.5   'LIX67     '  999.   IBP  NCEP      45
   -87.40   30.    'LIX68     '  999.   IBP  NCEP      45
$
   -89.10   28.80  'MOB51     '  999.   IBP  NCEP      45
   -89.10   28.50  'MOB52     '  999.   IBP  NCEP      45
   -88.40   28.50  'MOB53     '  999.   IBP  NCEP      45
   -87.90   28.50  'MOB54     '  999.   IBP  NCEP      45
   -87.40   28.50  'MOB55     '  999.   IBP  NCEP      45
   -86.90   28.50  'MOB56     '  999.   IBP  NCEP      45
   -86.40   28.50  'MOB57     '  999.   IBP  NCEP      45
   -85.90   28.50  'MOB58     '  999.   IBP  NCEP      45
   -85.90   29.00  'MOB59     '  999.   IBP  NCEP      45
   -85.90   29.50  'MOB60     '  999.   IBP  NCEP      45
   -85.90   30.00  'MOB61     '  999.   IBP  NCEP      45
$
   -87.35   28.35  'PCB51     '  999.   IBP  NCEP      45
   -87.35   28.65  'PCB52     '  999.   IBP  NCEP      45
   -87.35   28.95  'PCB53     '  999.   IBP  NCEP      45
   -87.35   29.25  'PCB54     '  999.   IBP  NCEP      45
   -87.35   29.55  'PCB55     '  999.   IBP  NCEP      45
   -87.35   29.85  'PCB56     '  999.   IBP  NCEP      45
   -87.35   30.15  'PCB57     '  999.   IBP  NCEP      45
   -87.05   28.35  'PCB58     '  999.   IBP  NCEP      45
   -86.75   28.35  'PCB59     '  999.   IBP  NCEP      45
   -86.45   28.35  'PCB60     '  999.   IBP  NCEP      45
   -86.15   28.35  'PCB61     '  999.   IBP  NCEP      45
   -85.85   28.35  'PCB62     '  999.   IBP  NCEP      45
   -85.55   28.35  'PCB63     '  999.   IBP  NCEP      45
   -85.25   28.35  'PCB64     '  999.   IBP  NCEP      45
   -84.95   28.35  'PCB65     '  999.   IBP  NCEP      45
   -84.65   28.35  'PCB66     '  999.   IBP  NCEP      45
   -84.35   28.35  'PCB67     '  999.   IBP  NCEP      45
   -84.05   28.35  'PCB68     '  999.   IBP  NCEP      45
   -83.75   28.35  'PCB69     '  999.   IBP  NCEP      45
   -83.45   28.35  'PCB70     '  999.   IBP  NCEP      45
   -83.00   28.35  'PCB71     '  999.   IBP  NCEP      45
$
   -84.80   29.45  'TBW51     '  999.   IBP  NCEP      45
   -84.80   28.95  'TBW52     '  999.   IBP  NCEP      45
   -84.80   28.45  'TBW53     '  999.   IBP  NCEP      45
   -84.80   27.95  'TBW54     '  999.   IBP  NCEP      45
   -84.80   27.45  'TBW55     '  999.   IBP  NCEP      45
   -84.80   26.95  'TBW56     '  999.   IBP  NCEP      45
   -84.80   26.45  'TBW57     '  999.   IBP  NCEP      45
   -84.80   25.95  'TBW58     '  999.   IBP  NCEP      45
   -84.80   25.45  'TBW59     '  999.   IBP  NCEP      45
   -84.30   25.45  'TBW60     '  999.   IBP  NCEP      45
   -83.80   25.45  'TBW61     '  999.   IBP  NCEP      45
   -83.30   25.45  'TBW62     '  999.   IBP  NCEP      45
   -82.80   25.45  'TBW63     '  999.   IBP  NCEP      45
   -82.30   25.45  'TBW64     '  999.   IBP  NCEP      45
$
   -83.54   24.10  'MIA51     '  999.   IBP  NCEP      45
   -83.54   24.82  'MIA52     '  999.   IBP  NCEP      45
   -83.54   25.54  'MIA53     '  999.   IBP  NCEP      45
   -83.54   26.26  'MIA54     '  999.   IBP  NCEP      45
   -83.54   26.98  'MIA55     '  999.   IBP  NCEP      45
   -83.54   27.70  'MIA56     '  999.   IBP  NCEP      45
   -83.14   27.70  'MIA57     '  999.   IBP  NCEP      45
   -80.01   27.70  'MIA58     '  999.   IBP  NCEP      45
   -79.61   27.70  'MIA59     '  999.   IBP  NCEP      45
   -79.21   27.70  'MIA60     '  999.   IBP  NCEP      45
   -78.81   27.70  'MIA61     '  999.   IBP  NCEP      45
   -78.41   27.70  'MIA62     '  999.   IBP  NCEP      45
   -78.41   27.40  'MIA63     '  999.   IBP  NCEP      45
   -78.41   26.50  'MIA64     '  999.   IBP  NCEP      45
   -78.41   26.20  'MIA65     '  999.   IBP  NCEP      45
   -78.41   25.90  'MIA66     '  999.   IBP  NCEP      45
   -78.41   24.10  'MIA67     '  999.   IBP  NCEP      45
   -78.923  24.10  'MIA68     '  999.   IBP  NCEP      45
   -79.436  24.10  'MIA69     '  999.   IBP  NCEP      45
   -79.949  24.10  'MIA70     '  999.   IBP  NCEP      45
   -80.462  24.10  'MIA71     '  999.   IBP  NCEP      45
   -80.975  24.10  'MIA72     '  999.   IBP  NCEP      45
   -81.488  24.10  'MIA73     '  999.   IBP  NCEP      45
   -82.001  24.10  'MIA74     '  999.   IBP  NCEP      45
   -82.514  24.10  'MIA75     '  999.   IBP  NCEP      45
   -83.027  24.10  'MIA76     '  999.   IBP  NCEP      45
$
   -81.00   30.00  'MLB51     '  999.   IBP  NCEP      45
   -80.60   30.00  'MLB52     '  999.   IBP  NCEP      45
   -80.20   30.00  'MLB53     '  999.   IBP  NCEP      45
   -79.80   30.00  'MLB54     '  999.   IBP  NCEP      45
   -79.40   30.00  'MLB55     '  999.   IBP  NCEP      45
   -79.00   30.00  'MLB56     '  999.   IBP  NCEP      45
   -78.51   30.00  'MLB57     '  999.   IBP  NCEP      45
   -78.51   29.70  'MLB58     '  999.   IBP  NCEP      45
   -78.51   29.40  'MLB59     '  999.   IBP  NCEP      45
   -78.51   29.10  'MLB60     '  999.   IBP  NCEP      45
   -78.51   28.80  'MLB61     '  999.   IBP  NCEP      45
   -78.51   28.50  'MLB62     '  999.   IBP  NCEP      45
   -78.51   28.20  'MLB63     '  999.   IBP  NCEP      45
   -78.51   27.90  'MLB64     '  999.   IBP  NCEP      45
   -78.51   27.60  'MLB65     '  999.   IBP  NCEP      45
   -78.51   27.30  'MLB66     '  999.   IBP  NCEP      45
   -79.90   26.50  'MLB67     '  999.   IBP  NCEP      45
   -79.70   26.50  'MLB68     '  999.   IBP  NCEP      45
   -79.50   26.50  'MLB69     '  999.   IBP  NCEP      45
   -79.30   26.50  'MLB70     '  999.   IBP  NCEP      45
   -79.10   26.50  'MLB71     '  999.   IBP  NCEP      45
   -78.90   26.50  'MLB72     '  999.   IBP  NCEP      45
$
   -83.50   26.00  'KEY51     '  999.   IBP  NCEP      45
   -83.50   25.75  'KEY52     '  999.   IBP  NCEP      45
   -83.50   25.50  'KEY53     '  999.   IBP  NCEP      45
   -83.50   25.25  'KEY54     '  999.   IBP  NCEP      45
   -83.50   25.00  'KEY55     '  999.   IBP  NCEP      45
   -83.50   24.75  'KEY56     '  999.   IBP  NCEP      45
   -83.50   24.50  'KEY57     '  999.   IBP  NCEP      45
   -83.50   24.25  'KEY58     '  999.   IBP  NCEP      45
   -83.50   24.00  'KEY59     '  999.   IBP  NCEP      45
   -83.50   23.75  'KEY60     '  999.   IBP  NCEP      45
   -83.50   23.50  'KEY61     '  999.   IBP  NCEP      45
   -83.50   23.25  'KEY62     '  999.   IBP  NCEP      45
   -83.50   23.00  'KEY63     '  999.   IBP  NCEP      45
   -79.80   23.00  'KEY64     '  999.   IBP  NCEP      45
   -79.60   23.00  'KEY65     '  999.   IBP  NCEP      45
   -79.40   23.00  'KEY66     '  999.   IBP  NCEP      45
   -79.20   23.00  'KEY67     '  999.   IBP  NCEP      45
   -79.00   23.00  'KEY68     '  999.   IBP  NCEP      45
   -79.00   23.20  'KEY69     '  999.   IBP  NCEP      45
   -79.00   23.40  'KEY70     '  999.   IBP  NCEP      45
   -79.00   26.00  'KEY71     '  999.   IBP  NCEP      45
   -79.20   26.00  'KEY72     '  999.   IBP  NCEP      45
   -79.40   26.00  'KEY73     '  999.   IBP  NCEP      45
   -79.60   26.00  'KEY74     '  999.   IBP  NCEP      45
   -79.80   26.00  'KEY75     '  999.   IBP  NCEP      45
   -80.00   26.00  'KEY76     '  999.   IBP  NCEP      45
   -82.20   26.00  'KEY77     '  999.   IBP  NCEP      45
   -82.45   26.00  'KEY78     '  999.   IBP  NCEP      45
   -82.70   26.00  'KEY79     '  999.   IBP  NCEP      45
   -82.95   26.00  'KEY80     '  999.   IBP  NCEP      45
   -83.20   26.00  'KEY81     '  999.   IBP  NCEP      45
$
$ NWPS Beta Testing sites (NW)
$
   -69.20   43.30  'NW-CAR51  '  999.   IBP  NCEP      45
   -68.70   43.30  'NW-CAR52  '  999.   IBP  NCEP      45
   -68.20   43.30  'NW-CAR53  '  999.   IBP  NCEP      45
   -67.70   43.30  'NW-CAR54  '  999.   IBP  NCEP      45
   -67.20   43.30  'NW-CAR55  '  999.   IBP  NCEP      45
   -66.70   43.30  'NW-CAR56  '  999.   IBP  NCEP      45
   -66.30   43.30  'NW-CAR57  '  999.   IBP  NCEP      45
   -66.30   43.55  'NW-CAR58  '  999.   IBP  NCEP      45
   -66.30   43.80  'NW-CAR59  '  999.   IBP  NCEP      45
   -66.30   44.05  'NW-CAR60  '  999.   IBP  NCEP      45
   -66.30   44.30  'NW-CAR61  '  999.   IBP  NCEP      45
   -66.30   44.55  'NW-CAR62  '  999.   IBP  NCEP      45
   -66.30   44.80  'NW-CAR63  '  999.   IBP  NCEP      45
   -66.30   45.05  'NW-CAR64  '  999.   IBP  NCEP      45
   -69.20   43.80  'NW-CAR65  '  999.   IBP  NCEP      45
   -69.20   43.55  'NW-CAR66  '  999.   IBP  NCEP      45
   -69.20   43.30  'NW-CAR67  '  999.   IBP  NCEP      45
$
   -72.50   40.45  'NW-BOX51  '  999.   IBP  NCEP      45
   -72.00   40.45  'NW-BOX52  '  999.   IBP  NCEP      45
   -71.50   40.45  'NW-BOX53  '  999.   IBP  NCEP      45
   -71.00   40.45  'NW-BOX54  '  999.   IBP  NCEP      45
   -70.50   40.45  'NW-BOX55  '  999.   IBP  NCEP      45
   -70.00   40.45  'NW-BOX56  '  999.   IBP  NCEP      45
   -69.50   40.45  'NW-BOX57  '  999.   IBP  NCEP      45
   -69.00   40.45  'NW-BOX58  '  999.   IBP  NCEP      45
   -68.85   40.45  'NW-BOX59  '  999.   IBP  NCEP      45
[...]
  -141.00    4.00  'RW-NH1-98 '  999.   IBP  NCEP      45
  -141.00    4.50  'RW-NH1-99 '  999.   IBP  NCEP      45
  -141.00    5.00  'RW-NH1-100'  999.   IBP  NCEP      45
  -141.00    5.50  'RW-NH1-101'  999.   IBP  NCEP      45
  -141.00    6.00  'RW-NH1-102'  999.   IBP  NCEP      45
  -141.00    6.50  'RW-NH1-103'  999.   IBP  NCEP      45
  -141.00    7.00  'RW-NH1-104'  999.   IBP  NCEP      45
  -141.00    7.50  'RW-NH1-105'  999.   IBP  NCEP      45
  -141.00    8.00  'RW-NH1-106'  999.   IBP  NCEP      45
  -141.00    8.50  'RW-NH1-107'  999.   IBP  NCEP      45
  -141.00    9.00  'RW-NH1-108'  999.   IBP  NCEP      45
  -141.00    9.50  'RW-NH1-109'  999.   IBP  NCEP      45
  -141.00   10.00  'RW-NH1-110'  999.   IBP  NCEP      45
  -141.00   10.50  'RW-NH1-111'  999.   IBP  NCEP      45
  -141.00   11.00  'RW-NH1-112'  999.   IBP  NCEP      45
  -141.00   11.50  'RW-NH1-113'  999.   IBP  NCEP      45
  -141.00   12.00  'RW-NH1-114'  999.   IBP  NCEP      45
  -141.00   12.50  'RW-NH1-115'  999.   IBP  NCEP      45
  -141.00   13.00  'RW-NH1-116'  999.   IBP  NCEP      45
  -141.00   13.50  'RW-NH1-117'  999.   IBP  NCEP      45
  -141.00   14.00  'RW-NH1-118'  999.   IBP  NCEP      45
  -141.00   14.50  'RW-NH1-119'  999.   IBP  NCEP      45
  -141.00   15.00  'RW-NH1-120'  999.   IBP  NCEP      45
  -141.00   15.50  'RW-NH1-121'  999.   IBP  NCEP      45
  -141.00   16.00  'RW-NH1-122'  999.   IBP  NCEP      45
  -141.00   16.50  'RW-NH1-123'  999.   IBP  NCEP      45
  -141.00   17.00  'RW-NH1-124'  999.   IBP  NCEP      45
  -141.00   17.50  'RW-NH1-125'  999.   IBP  NCEP      45
  -141.00   18.00  'RW-NH1-126'  999.   IBP  NCEP      45
  -141.00   18.50  'RW-NH1-127'  999.   IBP  NCEP      45
  -141.00   19.00  'RW-NH1-128'  999.   IBP  NCEP      45
  -141.00   19.50  'RW-NH1-129'  999.   IBP  NCEP      45
  -141.00   20.00  'RW-NH1-130'  999.   IBP  NCEP      45
  -141.00   20.50  'RW-NH1-131'  999.   IBP  NCEP      45
  -141.00   21.00  'RW-NH1-132'  999.   IBP  NCEP      45
  -141.00   21.50  'RW-NH1-133'  999.   IBP  NCEP      45
  -141.00   22.00  'RW-NH1-134'  999.   IBP  NCEP      45
  -141.00   22.50  'RW-NH1-135'  999.   IBP  NCEP      45
  -141.00   23.00  'RW-NH1-136'  999.   IBP  NCEP      45
  -141.00   23.50  'RW-NH1-137'  999.   IBP  NCEP      45
  -141.00   24.00  'RW-NH1-138'  999.   IBP  NCEP      45
  -141.00   24.50  'RW-NH1-139'  999.   IBP  NCEP      45
  -141.00   25.00  'RW-NH1-140'  999.   IBP  NCEP      45
  -141.00   25.50  'RW-NH1-141'  999.   IBP  NCEP      45
  -141.00   26.00  'RW-NH1-142'  999.   IBP  NCEP      45
  -141.00   26.50  'RW-NH1-143'  999.   IBP  NCEP      45
  -141.00   27.00  'RW-NH1-144'  999.   IBP  NCEP      45
  -141.00   27.50  'RW-NH1-145'  999.   IBP  NCEP      45
  -141.00   28.00  'RW-NH1-146'  999.   IBP  NCEP      45
  -141.00   28.50  'RW-NH1-147'  999.   IBP  NCEP      45
  -141.00   29.00  'RW-NH1-148'  999.   IBP  NCEP      45
  -141.00   29.50  'RW-NH1-149'  999.   IBP  NCEP      45
  -141.00   30.00  'RW-NH1-150'  999.   IBP  NCEP      45
  -141.00   30.50  'RW-NH1-151'  999.   IBP  NCEP      45
  -141.00   31.00  'RW-NH1-152'  999.   IBP  NCEP      45
  -141.00   31.50  'RW-NH1-153'  999.   IBP  NCEP      45
  -141.00   32.00  'RW-NH1-154'  999.   IBP  NCEP      45
  -141.00   32.50  'RW-NH1-155'  999.   IBP  NCEP      45
  -141.00   32.80  'RW-NH1-156'  999.   IBP  NCEP      45
  -141.00   32.80  'RW-NH1-157'  999.   IBP  NCEP      45
  -140.50   32.80  'RW-NH1-158'  999.   IBP  NCEP      45
  -140.00   32.80  'RW-NH1-159'  999.   IBP  NCEP      45
  -139.50   32.80  'RW-NH1-160'  999.   IBP  NCEP      45
  -139.00   32.80  'RW-NH1-161'  999.   IBP  NCEP      45
  -138.50   32.80  'RW-NH1-162'  999.   IBP  NCEP      45
  -138.00   32.80  'RW-NH1-163'  999.   IBP  NCEP      45
  -137.50   32.80  'RW-NH1-164'  999.   IBP  NCEP      45
  -137.00   32.80  'RW-NH1-165'  999.   IBP  NCEP      45
  -136.50   32.80  'RW-NH1-166'  999.   IBP  NCEP      45
  -136.00   32.80  'RW-NH1-167'  999.   IBP  NCEP      45
  -135.50   32.80  'RW-NH1-168'  999.   IBP  NCEP      45
  -135.00   32.80  'RW-NH1-169'  999.   IBP  NCEP      45
  -134.50   32.80  'RW-NH1-170'  999.   IBP  NCEP      45
  -134.00   32.80  'RW-NH1-171'  999.   IBP  NCEP      45
  -133.50   32.80  'RW-NH1-172'  999.   IBP  NCEP      45
  -133.00   32.80  'RW-NH1-173'  999.   IBP  NCEP      45
  -132.50   32.80  'RW-NH1-174'  999.   IBP  NCEP      45
  -132.00   32.80  'RW-NH1-175'  999.   IBP  NCEP      45
  -131.50   32.80  'RW-NH1-176'  999.   IBP  NCEP      45
  -131.00   32.80  'RW-NH1-177'  999.   IBP  NCEP      45
  -130.50   32.80  'RW-NH1-178'  999.   IBP  NCEP      45
  -130.00   32.80  'RW-NH1-179'  999.   IBP  NCEP      45
  -129.50   32.80  'RW-NH1-180'  999.   IBP  NCEP      45
  -129.00   32.80  'RW-NH1-181'  999.   IBP  NCEP      45
  -128.50   32.80  'RW-NH1-182'  999.   IBP  NCEP      45
  -128.00   32.80  'RW-NH1-183'  999.   IBP  NCEP      45
  -127.50   32.80  'RW-NH1-184'  999.   IBP  NCEP      45
  -127.00   32.80  'RW-NH1-185'  999.   IBP  NCEP      45
  -126.50   32.80  'RW-NH1-186'  999.   IBP  NCEP      45
  -126.00   32.80  'RW-NH1-187'  999.   IBP  NCEP      45
  -125.50   32.80  'RW-NH1-188'  999.   IBP  NCEP      45
  -125.00   32.80  'RW-NH1-189'  999.   IBP  NCEP      45
  -124.50   32.80  'RW-NH1-190'  999.   IBP  NCEP      45
  -124.00   32.80  'RW-NH1-191'  999.   IBP  NCEP      45
  -123.50   32.80  'RW-NH1-192'  999.   IBP  NCEP      45
  -123.00   32.80  'RW-NH1-193'  999.   IBP  NCEP      45
  -122.50   32.80  'RW-NH1-194'  999.   IBP  NCEP      45
  -122.00   32.80  'RW-NH1-195'  999.   IBP  NCEP      45
  -121.50   32.80  'RW-NH1-196'  999.   IBP  NCEP      45
  -121.00   32.80  'RW-NH1-197'  999.   IBP  NCEP      45
  -120.50   32.80  'RW-NH1-198'  999.   IBP  NCEP      45
  -120.00   32.80  'RW-NH1-199'  999.   IBP  NCEP      45
  -119.50   32.80  'RW-NH1-200'  999.   IBP  NCEP      45
  -119.00   32.80  'RW-NH1-201'  999.   IBP  NCEP      45
  -118.50   32.80  'RW-NH1-202'  999.   IBP  NCEP      45
  -118.00   32.80  'RW-NH1-203'  999.   IBP  NCEP      45
  -117.50   32.80  'RW-NH1-204'  999.   IBP  NCEP      45
  -113.50   31.00  'RW-NH1-205'  999.   IBP  NCEP      45
   -81.25   31.00  'RW-NH1-206'  999.   IBP  NCEP      45
   -81.00   31.00  'RW-NH1-207'  999.   IBP  NCEP      45
   -80.50   31.00  'RW-NH1-208'  999.   IBP  NCEP      45
   -80.00   31.00  'RW-NH1-209'  999.   IBP  NCEP      45
   -79.50   31.00  'RW-NH1-210'  999.   IBP  NCEP      45
   -79.00   31.00  'RW-NH1-211'  999.   IBP  NCEP      45
   -78.50   31.00  'RW-NH1-212'  999.   IBP  NCEP      45
   -78.00   31.00  'RW-NH1-213'  999.   IBP  NCEP      45
   -77.50   31.00  'RW-NH1-214'  999.   IBP  NCEP      45
   -77.00   31.00  'RW-NH1-215'  999.   IBP  NCEP      45
   -76.50   31.00  'RW-NH1-216'  999.   IBP  NCEP      45
   -76.00   31.00  'RW-NH1-217'  999.   IBP  NCEP      45
   -75.50   31.00  'RW-NH1-218'  999.   IBP  NCEP      45
   -75.00   31.00  'RW-NH1-219'  999.   IBP  NCEP      45
   -74.50   31.00  'RW-NH1-220'  999.   IBP  NCEP      45
   -74.00   31.00  'RW-NH1-221'  999.   IBP  NCEP      45
   -73.50   31.00  'RW-NH1-222'  999.   IBP  NCEP      45
   -73.00   31.00  'RW-NH1-223'  999.   IBP  NCEP      45
   -72.50   31.00  'RW-NH1-224'  999.   IBP  NCEP      45
   -72.00   31.00  'RW-NH1-225'  999.   IBP  NCEP      45
   -71.50   31.00  'RW-NH1-226'  999.   IBP  NCEP      45
   -71.00   31.00  'RW-NH1-227'  999.   IBP  NCEP      45
   -70.50   31.00  'RW-NH1-228'  999.   IBP  NCEP      45
   -70.00   31.00  'RW-NH1-229'  999.   IBP  NCEP      45
   -70.00   31.00  'RW-NH1-230'  999.   IBP  NCEP      45
   -70.00   30.50  'RW-NH1-231'  999.   IBP  NCEP      45
   -70.00   30.00  'RW-NH1-232'  999.   IBP  NCEP      45
   -70.00   29.50  'RW-NH1-233'  999.   IBP  NCEP      45
   -70.00   29.00  'RW-NH1-234'  999.   IBP  NCEP      45
   -70.00   28.50  'RW-NH1-235'  999.   IBP  NCEP      45
   -70.00   28.00  'RW-NH1-236'  999.   IBP  NCEP      45
   -70.00   27.50  'RW-NH1-237'  999.   IBP  NCEP      45
   -70.00   27.00  'RW-NH1-238'  999.   IBP  NCEP      45
   -70.00   26.50  'RW-NH1-239'  999.   IBP  NCEP      45
   -70.00   26.00  'RW-NH1-240'  999.   IBP  NCEP      45
   -70.00   25.50  'RW-NH1-241'  999.   IBP  NCEP      45
   -70.00   25.00  'RW-NH1-242'  999.   IBP  NCEP      45
   -70.00   24.50  'RW-NH1-243'  999.   IBP  NCEP      45
   -70.00   24.00  'RW-NH1-244'  999.   IBP  NCEP      45
   -70.00   23.50  'RW-NH1-245'  999.   IBP  NCEP      45
   -70.00   23.00  'RW-NH1-246'  999.   IBP  NCEP      45
   -70.00   22.50  'RW-NH1-247'  999.   IBP  NCEP      45
   -70.00   22.00  'RW-NH1-248'  999.   IBP  NCEP      45
   -70.00   21.50  'RW-NH1-249'  999.   IBP  NCEP      45
   -70.00   21.00  'RW-NH1-250'  999.   IBP  NCEP      45
   -70.00   20.50  'RW-NH1-251'  999.   IBP  NCEP      45
   -70.00   20.00  'RW-NH1-252'  999.   IBP  NCEP      45
   -70.00   18.00  'RW-NH1-253'  999.   IBP  NCEP      45
   -70.00   17.50  'RW-NH1-254'  999.   IBP  NCEP      45
   -70.00   17.00  'RW-NH1-255'  999.   IBP  NCEP      45
   -70.00   16.50  'RW-NH1-256'  999.   IBP  NCEP      45
   -70.00   16.00  'RW-NH1-257'  999.   IBP  NCEP      45
   -70.00   15.50  'RW-NH1-258'  999.   IBP  NCEP      45
   -70.00   15.00  'RW-NH1-259'  999.   IBP  NCEP      45
   -70.00   14.50  'RW-NH1-260'  999.   IBP  NCEP      45
   -70.00   14.00  'RW-NH1-261'  999.   IBP  NCEP      45
   -70.00   13.50  'RW-NH1-262'  999.   IBP  NCEP      45
   -70.00   13.00  'RW-NH1-263'  999.   IBP  NCEP      45
   -70.00   12.50  'RW-NH1-264'  999.   IBP  NCEP      45
   -70.50  -19.50  'RW-NH1-265'  999.   IBP  NCEP      45
   -71.00  -19.50  'RW-NH1-266'  999.   IBP  NCEP      45
   -71.50  -19.50  'RW-NH1-267'  999.   IBP  NCEP      45
   -72.00  -19.50  'RW-NH1-268'  999.   IBP  NCEP      45
   -72.50  -19.50  'RW-NH1-269'  999.   IBP  NCEP      45
   -73.00  -19.50  'RW-NH1-270'  999.   IBP  NCEP      45
   -73.50  -19.50  'RW-NH1-271'  999.   IBP  NCEP      45
   -74.00  -19.50  'RW-NH1-272'  999.   IBP  NCEP      45
   -74.50  -19.50  'RW-NH1-273'  999.   IBP  NCEP      45
   -75.00  -19.50  'RW-NH1-274'  999.   IBP  NCEP      45
   -75.50  -19.50  'RW-NH1-275'  999.   IBP  NCEP      45
   -76.00  -19.50  'RW-NH1-276'  999.   IBP  NCEP      45
   -76.50  -19.50  'RW-NH1-277'  999.   IBP  NCEP      45
   -77.00  -19.50  'RW-NH1-278'  999.   IBP  NCEP      45
   -77.50  -19.50  'RW-NH1-279'  999.   IBP  NCEP      45
   -78.00  -19.50  'RW-NH1-280'  999.   IBP  NCEP      45
   -78.50  -19.50  'RW-NH1-281'  999.   IBP  NCEP      45
   -79.00  -19.50  'RW-NH1-282'  999.   IBP  NCEP      45
   -79.50  -19.50  'RW-NH1-283'  999.   IBP  NCEP      45
   -80.00  -19.50  'RW-NH1-284'  999.   IBP  NCEP      45
   -80.50  -19.50  'RW-NH1-285'  999.   IBP  NCEP      45
   -81.00  -19.50  'RW-NH1-286'  999.   IBP  NCEP      45
   -81.50  -19.50  'RW-NH1-287'  999.   IBP  NCEP      45
   -82.00  -19.50  'RW-NH1-288'  999.   IBP  NCEP      45
   -82.50  -19.50  'RW-NH1-289'  999.   IBP  NCEP      45
   -83.00  -19.50  'RW-NH1-290'  999.   IBP  NCEP      45
   -83.50  -19.50  'RW-NH1-291'  999.   IBP  NCEP      45
   -84.00  -19.50  'RW-NH1-292'  999.   IBP  NCEP      45
   -84.50  -19.50  'RW-NH1-293'  999.   IBP  NCEP      45
   -85.00  -19.50  'RW-NH1-294'  999.   IBP  NCEP      45
   -85.50  -19.50  'RW-NH1-295'  999.   IBP  NCEP      45
   -86.00  -19.50  'RW-NH1-296'  999.   IBP  NCEP      45
   -86.50  -19.50  'RW-NH1-297'  999.   IBP  NCEP      45
   -87.00  -19.50  'RW-NH1-298'  999.   IBP  NCEP      45
   -87.50  -19.50  'RW-NH1-299'  999.   IBP  NCEP      45
   -88.00  -19.50  'RW-NH1-300'  999.   IBP  NCEP      45
   -88.50  -19.50  'RW-NH1-301'  999.   IBP  NCEP      45
   -89.00  -19.50  'RW-NH1-302'  999.   IBP  NCEP      45
   -89.50  -19.50  'RW-NH1-303'  999.   IBP  NCEP      45
   -90.00  -19.50  'RW-NH1-304'  999.   IBP  NCEP      45
   -90.50  -19.50  'RW-NH1-305'  999.   IBP  NCEP      45
   -91.00  -19.50  'RW-NH1-306'  999.   IBP  NCEP      45
   -91.50  -19.50  'RW-NH1-307'  999.   IBP  NCEP      45
   -92.00  -19.50  'RW-NH1-308'  999.   IBP  NCEP      45
   -92.50  -19.50  'RW-NH1-309'  999.   IBP  NCEP      45
   -93.00  -19.50  'RW-NH1-310'  999.   IBP  NCEP      45
   -93.50  -19.50  'RW-NH1-311'  999.   IBP  NCEP      45
   -94.00  -19.50  'RW-NH1-312'  999.   IBP  NCEP      45
   -94.50  -19.50  'RW-NH1-313'  999.   IBP  NCEP      45
   -95.00  -19.50  'RW-NH1-314'  999.   IBP  NCEP      45
   -95.50  -19.50  'RW-NH1-315'  999.   IBP  NCEP      45
   -96.00  -19.50  'RW-NH1-316'  999.   IBP  NCEP      45
   -96.50  -19.50  'RW-NH1-317'  999.   IBP  NCEP      45
   -97.00  -19.50  'RW-NH1-318'  999.   IBP  NCEP      45
   -97.50  -19.50  'RW-NH1-319'  999.   IBP  NCEP      45
   -98.00  -19.50  'RW-NH1-320'  999.   IBP  NCEP      45
   -98.50  -19.50  'RW-NH1-321'  999.   IBP  NCEP      45
   -99.00  -19.50  'RW-NH1-322'  999.   IBP  NCEP      45
   -99.50  -19.50  'RW-NH1-323'  999.   IBP  NCEP      45
  -100.00  -19.50  'RW-NH1-324'  999.   IBP  NCEP      45
  -100.50  -19.50  'RW-NH1-325'  999.   IBP  NCEP      45
  -101.00  -19.50  'RW-NH1-326'  999.   IBP  NCEP      45
  -101.50  -19.50  'RW-NH1-327'  999.   IBP  NCEP      45
  -102.00  -19.50  'RW-NH1-328'  999.   IBP  NCEP      45
  -102.50  -19.50  'RW-NH1-329'  999.   IBP  NCEP      45
  -103.00  -19.50  'RW-NH1-330'  999.   IBP  NCEP      45
  -103.50  -19.50  'RW-NH1-331'  999.   IBP  NCEP      45
  -104.00  -19.50  'RW-NH1-332'  999.   IBP  NCEP      45
  -104.50  -19.50  'RW-NH1-333'  999.   IBP  NCEP      45
  -102.00  -19.50  'RW-NH1-334'  999.   IBP  NCEP      45
  -102.50  -19.50  'RW-NH1-335'  999.   IBP  NCEP      45
  -103.00  -19.50  'RW-NH1-336'  999.   IBP  NCEP      45
  -103.50  -19.50  'RW-NH1-337'  999.   IBP  NCEP      45
  -104.00  -19.50  'RW-NH1-338'  999.   IBP  NCEP      45
  -104.50  -19.50  'RW-NH1-339'  999.   IBP  NCEP      45
  -105.00  -19.50  'RW-NH1-340'  999.   IBP  NCEP      45
  -102.50  -19.50  'RW-NH1-341'  999.   IBP  NCEP      45
  -103.00  -19.50  'RW-NH1-342'  999.   IBP  NCEP      45
  -103.50  -19.50  'RW-NH1-343'  999.   IBP  NCEP      45
  -104.00  -19.50  'RW-NH1-344'  999.   IBP  NCEP      45
  -104.50  -19.50  'RW-NH1-345'  999.   IBP  NCEP      45
  -105.00  -19.50  'RW-NH1-346'  999.   IBP  NCEP      45
  -105.50  -19.50  'RW-NH1-347'  999.   IBP  NCEP      45
  -106.00  -19.50  'RW-NH1-348'  999.   IBP  NCEP      45
  -106.50  -19.50  'RW-NH1-349'  999.   IBP  NCEP      45
  -107.00  -19.50  'RW-NH1-350'  999.   IBP  NCEP      45
  -107.50  -19.50  'RW-NH1-351'  999.   IBP  NCEP      45
  -108.00  -19.50  'RW-NH1-352'  999.   IBP  NCEP      45
  -105.50  -19.50  'RW-NH1-353'  999.   IBP  NCEP      45
  -106.00  -19.50  'RW-NH1-354'  999.   IBP  NCEP      45
  -106.50  -19.50  'RW-NH1-355'  999.   IBP  NCEP      45
  -107.00  -19.50  'RW-NH1-356'  999.   IBP  NCEP      45
  -107.50  -19.50  'RW-NH1-357'  999.   IBP  NCEP      45
  -108.00  -19.50  'RW-NH1-358'  999.   IBP  NCEP      45
  -108.50  -19.50  'RW-NH1-359'  999.   IBP  NCEP      45
  -109.00  -19.50  'RW-NH1-360'  999.   IBP  NCEP      45
  -109.50  -19.50  'RW-NH1-361'  999.   IBP  NCEP      45
  -110.00  -19.50  'RW-NH1-362'  999.   IBP  NCEP      45
  -110.50  -19.50  'RW-NH1-363'  999.   IBP  NCEP      45
  -111.00  -19.50  'RW-NH1-364'  999.   IBP  NCEP      45
  -111.50  -19.50  'RW-NH1-365'  999.   IBP  NCEP      45
  -112.00  -19.50  'RW-NH1-366'  999.   IBP  NCEP      45
  -112.50  -19.50  'RW-NH1-367'  999.   IBP  NCEP      45
  -113.00  -19.50  'RW-NH1-368'  999.   IBP  NCEP      45
  -113.50  -19.50  'RW-NH1-369'  999.   IBP  NCEP      45
  -114.00  -19.50  'RW-NH1-370'  999.   IBP  NCEP      45
  -114.50  -19.50  'RW-NH1-371'  999.   IBP  NCEP      45
  -115.00  -19.50  'RW-NH1-372'  999.   IBP  NCEP      45
  -115.50  -19.50  'RW-NH1-373'  999.   IBP  NCEP      45
  -116.00  -19.50  'RW-NH1-374'  999.   IBP  NCEP      45
  -116.50  -19.50  'RW-NH1-375'  999.   IBP  NCEP      45
  -117.00  -19.50  'RW-NH1-376'  999.   IBP  NCEP      45
  -117.50  -19.50  'RW-NH1-377'  999.   IBP  NCEP      45
  -118.00  -19.50  'RW-NH1-378'  999.   IBP  NCEP      45
  -118.50  -19.50  'RW-NH1-379'  999.   IBP  NCEP      45
  -119.00  -19.50  'RW-NH1-380'  999.   IBP  NCEP      45
  -119.50  -19.50  'RW-NH1-381'  999.   IBP  NCEP      45
  -120.00  -19.50  'RW-NH1-382'  999.   IBP  NCEP      45
  -120.50  -19.50  'RW-NH1-383'  999.   IBP  NCEP      45
  -121.00  -19.50  'RW-NH1-384'  999.   IBP  NCEP      45
  -121.50  -19.50  'RW-NH1-385'  999.   IBP  NCEP      45
  -122.00  -19.50  'RW-NH1-386'  999.   IBP  NCEP      45
  -122.50  -19.50  'RW-NH1-387'  999.   IBP  NCEP      45
  -123.00  -19.50  'RW-NH1-388'  999.   IBP  NCEP      45
  -123.50  -19.50  'RW-NH1-389'  999.   IBP  NCEP      45
  -124.00  -19.50  'RW-NH1-390'  999.   IBP  NCEP      45
  -124.50  -19.50  'RW-NH1-391'  999.   IBP  NCEP      45
  -125.00  -19.50  'RW-NH1-392'  999.   IBP  NCEP      45
  -125.50  -19.50  'RW-NH1-393'  999.   IBP  NCEP      45
  -126.00  -19.50  'RW-NH1-394'  999.   IBP  NCEP      45
  -126.50  -19.50  'RW-NH1-395'  999.   IBP  NCEP      45
  -127.00  -19.50  'RW-NH1-396'  999.   IBP  NCEP      45
  -127.50  -19.50  'RW-NH1-397'  999.   IBP  NCEP      45
  -128.00  -19.50  'RW-NH1-398'  999.   IBP  NCEP      45
  -128.50  -19.50  'RW-NH1-399'  999.   IBP  NCEP      45
  -129.00  -19.50  'RW-NH1-400'  999.   IBP  NCEP      45
  -129.50  -19.50  'RW-NH1-401'  999.   IBP  NCEP      45
  -130.00  -19.50  'RW-NH1-402'  999.   IBP  NCEP      45
  -130.50  -19.50  'RW-NH1-403'  999.   IBP  NCEP      45
  -131.00  -19.50  'RW-NH1-404'  999.   IBP  NCEP      45
  -131.50  -19.50  'RW-NH1-405'  999.   IBP  NCEP      45
  -132.00  -19.50  'RW-NH1-406'  999.   IBP  NCEP      45
  -132.50  -19.50  'RW-NH1-407'  999.   IBP  NCEP      45
  -133.00  -19.50  'RW-NH1-408'  999.   IBP  NCEP      45
  -133.50  -19.50  'RW-NH1-409'  999.   IBP  NCEP      45
  -134.00  -19.50  'RW-NH1-410'  999.   IBP  NCEP      45
  -134.50  -19.50  'RW-NH1-411'  999.   IBP  NCEP      45
  -135.00  -19.50  'RW-NH1-412'  999.   IBP  NCEP      45
  -135.50  -19.50  'RW-NH1-413'  999.   IBP  NCEP      45
  -136.00  -19.50  'RW-NH1-414'  999.   IBP  NCEP      45
  -136.50  -19.50  'RW-NH1-415'  999.   IBP  NCEP      45
  -137.00  -19.50  'RW-NH1-416'  999.   IBP  NCEP      45
  -137.50  -19.50  'RW-NH1-417'  999.   IBP  NCEP      45
  -138.00  -19.50  'RW-NH1-418'  999.   IBP  NCEP      45
  -138.50  -19.50  'RW-NH1-419'  999.   IBP  NCEP      45
  -139.00  -19.50  'RW-NH1-420'  999.   IBP  NCEP      45
  -139.50  -19.50  'RW-NH1-421'  999.   IBP  NCEP      45
  -140.00  -19.50  'RW-NH1-422'  999.   IBP  NCEP      45
  -140.50  -19.50  'RW-NH1-423'  999.   IBP  NCEP      45
  -141.00  -19.50  'RW-NH1-424'  999.   IBP  NCEP      45
$
$ ---------------------------------------------------------------
$ End of list
$
$ ---------------------------------------------------------------
$
     0.00    0.00  'STOPSTRING'  999.   XXX  NCEP       0
$
$ Type 3 : Output along track.
$          Flag for formatted input file.
$                         The data files are track_i.ww3 and
$                         track_o.ww3, see w3iotr.ftn for ad. doc.
$
   @[RUN_BEG]      0  @[RUN_END]
$
$ Type 4 : Restart files (no additional data required).
$                               The data file is restartN.ww3, see
$                               w3iors.ftn for additional doc.
$          Flag for second restart (data server mode)
$          Flag for extra fields in the restart file (coupling restart)
$
$ Keep next two lines formatting as is to allow proper parsing
   @[RUN_BEG]   @[DTRST]  @[RUN_END] T
@[RUN_BEG]   @[WW3_DT_2_RST]  @[RUN_END]
$
   @[RUN_BEG]      0  @[RUN_END]
$
   @[RUN_BEG]      0  @[RUN_END]
$
  'the_end'  0
$
  'STP'
$
$ End of input file
